                                  MODFLOW-NWT-SWR1 
      U.S. GEOLOGICAL SURVEY MODULAR FINITE-DIFFERENCE GROUNDWATER-FLOW MODEL
                            VERSION 1.2.0 03/01/2020
                    BASED ON MODFLOW-2005 VERSION 1.12.00 02/03/2017

 LIST FILE: CASE5.out
                         UNIT    1

 OPENING CASE5.hed
 FILE TYPE:DATA(BINARY)   UNIT    2   STATUS:UNKNOWN
 FORMAT:BINARY                 ACCESS:SEQUENTIAL          

 OPENING CASE5.drw
 FILE TYPE:DATA(BINARY)   UNIT   12   STATUS:UNKNOWN
 FORMAT:BINARY                 ACCESS:SEQUENTIAL          

 OPENING CASE5.ccf
 FILE TYPE:DATA(BINARY)   UNIT   40   STATUS:UNKNOWN
 FORMAT:BINARY                 ACCESS:SEQUENTIAL          

 OPENING CASE5.lmt6
 FILE TYPE:LMT6   UNIT    3   STATUS:OLD    
 FORMAT:FORMATTED              ACCESS:SEQUENTIAL          

 OPENING CASE5.dis
 FILE TYPE:DIS   UNIT    4   STATUS:OLD    
 FORMAT:FORMATTED              ACCESS:SEQUENTIAL          

 OPENING CASE5.ba6
 FILE TYPE:BAS6   UNIT    7   STATUS:OLD    
 FORMAT:FORMATTED              ACCESS:SEQUENTIAL          

 OPENING CASE5.upw
 FILE TYPE:UPW   UNIT    8   STATUS:OLD    
 FORMAT:FORMATTED              ACCESS:SEQUENTIAL          

 OPENING CASE5.oc
 FILE TYPE:OC   UNIT    9   STATUS:OLD    
 FORMAT:FORMATTED              ACCESS:SEQUENTIAL          

 OPENING CASE5.rch
 FILE TYPE:RCH   UNIT   10   STATUS:OLD    
 FORMAT:FORMATTED              ACCESS:SEQUENTIAL          

 OPENING CASE5.nwt
 FILE TYPE:NWT   UNIT   11   STATUS:OLD    
 FORMAT:FORMATTED              ACCESS:SEQUENTIAL          

 BAS -- BASIC PACKAGE, VERSION 1.2.0, 3/01/2020 INPUT READ FROM UNIT    7
 
 MODFLOW was compiled using mixed precision
 Precision of REAL variables:           6
 Precision of DOUBLE PRECISION variables:          15

 DISCRETIZATION INPUT DATA READ FROM UNIT    4
 # MF2K DISCRETIZATION FILE
 #
 #
 # NLAY NROW NCOL NPER TIMEUNITS LENUNITS
    1 LAYERS       400 ROWS       400 COLUMNS
    1 STRESS PERIOD(S) IN SIMULATION
 MODEL TIME UNIT IS DAYS
 MODEL LENGTH UNIT IS METERS
  Confining bed flag for each layer:
   0

                     DELR =   20.0000    

                     DELC =   20.0000    

 TOP ELEVATION OF LAYER 1 =   200.000    



             MODEL LAYER BOTTOM EL. FOR LAYER   1
 READING ON UNIT    4 WITH FORMAT: (FREE)              


 STRESS PERIOD     LENGTH       TIME STEPS     MULTIPLIER FOR DELT    SS FLAG
 ----------------------------------------------------------------------------
        1         1.000000          1                    1.000         SS

 STEADY-STATE SIMULATION



 
 THE FREE FORMAT OPTION HAS BEEN SELECTED



                     BOUNDARY ARRAY FOR LAYER   1
 READING ON UNIT    7 WITH FORMAT: (FREE)              

 AQUIFER HEAD WILL BE SET TO  -999.00     AT ALL NO-FLOW NODES (IBOUND=0).



                       INITIAL HEAD FOR LAYER   1
 READING ON UNIT    7 WITH FORMAT: (FREE)              

 OUTPUT CONTROL IS SPECIFIED ONLY AT TIME STEPS FOR WHICH OUTPUT IS DESIRED
 COMPACT CELL-BY-CELL BUDGET FILES WILL BE WRITTEN
 AUXILIARY DATA WILL BE SAVED IN CELL-BY-CELL BUDGET FILES
 HEAD PRINT FORMAT CODE IS   0    DRAWDOWN PRINT FORMAT CODE IS   0
 HEADS WILL BE SAVED ON UNIT    2    DRAWDOWNS WILL BE SAVED ON UNIT   12
 #

 NWT1 -- Newton Solver, VERSION 1.2.0, 3/01/2020
         INPUT READ FROM UNIT 11

 COMPLEX OPTION:
 DEFAULT SOLVER INPUT VALUES REFLECT STRONGLY NONLINEAR MODEL
 ***XMD linear solver will be used***
 
   CONVERGENCE CRITERION OF   0.100000E-03 FOR HEAD SOLUTION
   AND A TOLERANCE OF   0.100000E-03 FOR FLOW SOLUTION AND 
   A MAXIMUM OF 10000 OUTER ITERATIONS. 


   D-B-D REDUCTION FACTOR OF    0.850000E+00 AND 
   A D-B-D INCREASE FACTOR OF    0.100000E-04 AND 
   A D-B-D RELAXATION OF    0.000000E+00 AND 
   A MOMENTUM FACTOR OF    0.100000E+00 .


   BACKTRACKING IS ACTIVE 
   THE MAXIMUM NUMBER OF BACKTRACKS IS    50 AND 
   THE BACKTRACKING TOLERANCE IS    0.110000E+01 AND
   THE BACKTRACKING REDUCTION FACTOR IS    0.700000E+00

 XMD -- LINEAR SOLUTION BY XMD PACKAGE VERSION 1.30
     BY MOTOMU IBARAKI, OHIO STATE UNIVERSITY, COLOMBUS, OH
                 INPUT READ FROM UNIT 11
 ACCELERATION METHOD                    (IACL) =         2
 NODE ORDERING FLAG                   (NORDER) =         0
 LEVEL OF FILL                         (LEVEL) =        15
 MAXIMUM NUMBER OF ORTHOGONALIZATIONS  (NORTH) =         1
 INDEX FOR USING REDUCED SYSTEM      (IREDSYS) =         1
 RESID. REDUCTION CONVERGE CRITERION  (RRCTOL) =  0.000000E+00
 INDEX FOR USING DROP TOLERANCE     (IDROPTOL) =         1
 DROP TOLERANCE VALUE                  (EPSRN) =  0.100000E-02
 CONVERGENCE CRITERIA OF           (HCLOSEXMD) =  0.100000E-03
 MAX. NUMBER OF LINEAR ITERATIONS  (MXITERXMD) =       200


 UPW1 -- UPSTREAM WEIGHTING FLOW PACKAGE, VERSION 1.2.0, 3/01/2020
         INPUT READ FROM UNIT  8

 CELL-BY-CELL FLOWS WILL BE SAVED ON UNIT   40
 No named parameters

   LAYER FLAGS:
 LAYER       LAYTYP          LAYAVG    CHANI           LAYVKA           LAYWET
 ---------------------------------------------------------------------------
    1             1             0    -1.000E+00             1             0

   INTERPRETATION OF LAYER FLAGS:
                        INTERBLOCK     HORIZONTAL    DATA IN
         LAYER TYPE   TRANSMISSIVITY   ANISOTROPY   ARRAY VKA   WETTABILITY
 LAYER   (LAYTYP)        (LAYAVG)      (CHANI)     (LAYVKA)       (LAYWET)
 ---------------------------------------------------------------------------
    1   CONVERTIBLE      HARMONIC      VARIABLE    ANISOTROPY  NON-WETTABLE

    HYD. COND. ALONG ROWS =   1.00000     FOR LAYER   1

   HORIZ. ANI. (COL./ROW) =   1.00000     FOR LAYER   1

  HORIZ. TO VERTICAL ANI. =   3.00000     FOR LAYER   1

 RCH -- RECHARGE PACKAGE, VERSION 7, 5/2/2005 INPUT READ FROM UNIT   10
 #
 No named parameters
 OPTION 3 -- RECHARGE TO HIGHEST ACTIVE NODE IN EACH VERTICAL COLUMN
 CELL-BY-CELL FLOWS WILL BE SAVED ON UNIT   40


     0 Recharge parameters

 WARNING READING LMT PACKAGE INPUT DATA:
 [STANDARD] HEADER NO LONGER SUPPORTED; [EXTENDED] HEADER USED INSTEAD.


 ***Link-MT3DMS Package v7***
 OPENING LINK-MT3DMS OUTPUT FILE: CASE5.hff                                                                                                                                                                                               
 ON UNIT NUMBER:   333
 FILE TYPE: UNFORMATTED
 HEADER OPTION: EXTENDED
 ***Link-MT3DMS Package v7***

1
                            STRESS PERIOD NO.    1, LENGTH =   1.000000    
                            -----------------------------------------------

                              NUMBER OF TIME STEPS =     1

                               MULTIPLIER FOR DELT =     1.000

                            INITIAL TIME STEP SIZE =   1.000000    



                           RECHARGE
 READING ON UNIT   10 WITH FORMAT: (FREE)              
 
 SOLVING FOR HEAD 
                                                   Max.-Head-Change                        Max.-Flux-Residual
  Residual-Control   Outer-Iter.   Inner-Iter.     Column Row Layer    Max.-Head-Change    Column Row Layer    Max.-Flux-Residual            L2-New               L2-Old           Solver-Max-Delh
          0                 1          68            52  166     1      -0.1999999229E+02     395  175    1      -0.1679313363E+02      0.1184438830E+03      0.0000000000E+00     -0.1999999229E+02
          1                 1           0            52  166     1      -0.1399999436E+02     143  178    1      -0.3003563060E+03      0.5530257646E+04      0.1184438830E+03     -0.1999999229E+02
          2                 1           0            52  166     1      -0.9799995888E+01     143  178    1      -0.2129806118E+02      0.3904565819E+03      0.5530257646E+04     -0.1999999229E+02
          0                 2          71           391  293     1      -0.1153910031E+02     143  178    1       0.1613360732E+03      0.2936389011E+04      0.3904565819E+03     -0.1153910031E+02
          0                 3         200             3  400     1       0.2596082244E+07     366  278    1       0.7006486265E+02      0.2134199469E+04      0.2936389011E+04      0.2596082244E+07
          1                 3           0             3  400     1       0.1817257540E+07       3  398    1      -0.1679515614E+08      0.4229586217E+08      0.2134199469E+04      0.2596082244E+07
          2                 3           0             3  400     1       0.1272080256E+07       3  398    1      -0.1175660125E+08      0.2960712905E+08      0.4229586217E+08      0.2596082244E+07
          3                 3           0             3  400     1       0.8904561641E+06       3  398    1      -0.8229612896E+07      0.2072502568E+08      0.2960712905E+08      0.2596082244E+07
          4                 3           0             3  400     1       0.6233193042E+06       3  398    1      -0.5760721086E+07      0.1450756029E+08      0.2072502568E+08      0.2596082244E+07
          5                 3           0             3  400     1       0.4363235055E+06       3  398    1      -0.4032496850E+07      0.1015534333E+08      0.1450756029E+08      0.2596082244E+07
                                                   Max.-Head-Change                        Max.-Flux-Residual
  Residual-Control   Outer-Iter.   Inner-Iter.     Column Row Layer    Max.-Head-Change    Column Row Layer    Max.-Flux-Residual            L2-New               L2-Old           Solver-Max-Delh
          6                 3           0             3  400     1       0.3054264487E+06       3  398    1      -0.2822739904E+07      0.7108802917E+07      0.1015534333E+08      0.2596082244E+07
          7                 3           0             3  400     1       0.2137985104E+06       3  398    1      -0.1975910057E+07      0.4976233606E+07      0.7108802917E+07      0.2596082244E+07
          8                 3           0             3  400     1       0.1496589548E+06       3  398    1      -0.1383129174E+07      0.3483448485E+07      0.4976233606E+07      0.2596082244E+07
          9                 3           0             3  400     1       0.1047612665E+06       3  398    1      -0.9681825630E+06      0.2438511218E+07      0.3483448485E+07      0.2596082244E+07
         10                 3           0             3  400     1       0.7333288533E+05       3  398    1      -0.6777199402E+06      0.1707067738E+07      0.2438511218E+07      0.2596082244E+07
         11                 3           0             3  400     1       0.5133301886E+05       3  398    1      -0.4743961078E+06      0.1195070140E+07      0.1707067738E+07      0.2596082244E+07
         12                 3           0             3  400     1       0.3593311259E+05       3  398    1      -0.3320694275E+06      0.8366862957E+06      0.1195070140E+07      0.2596082244E+07
         13                 3           0             3  400     1       0.2515317838E+05       3  398    1      -0.2324407529E+06      0.5858269759E+06      0.8366862957E+06      0.2596082244E+07
         14                 3           0             3  400     1       0.1760722457E+05       3  398    1      -0.1627006820E+06      0.4102392864E+06      0.5858269759E+06      0.2596082244E+07
         15                 3           0             3  400     1       0.1232505699E+05       3  398    1      -0.1138826331E+06      0.2873369229E+06      0.4102392864E+06      0.2596082244E+07
                                                   Max.-Head-Change                        Max.-Flux-Residual
  Residual-Control   Outer-Iter.   Inner-Iter.     Column Row Layer    Max.-Head-Change    Column Row Layer    Max.-Flux-Residual            L2-New               L2-Old           Solver-Max-Delh
         16                 3           0             3  400     1       0.8627539745E+04       3  398    1      -0.7970999950E+05      0.2013112468E+06      0.2873369229E+06      0.2596082244E+07
         17                 3           0             3  400     1       0.6039277719E+04       3  398    1      -0.5578915638E+05      0.1410963950E+06      0.2013112468E+06      0.2596082244E+07
         18                 3           0             3  400     1       0.4227494331E+04       3  398    1      -0.3904456647E+05      0.9896705658E+05      0.1410963950E+06      0.2596082244E+07
         19                 3           0             3  400     1       0.2959245981E+04       3  398    1      -0.2732335374E+05      0.6943652184E+05      0.9896705658E+05      0.2596082244E+07
         20                 3           0             3  400     1       0.2071472152E+04       3  398    1      -0.1911850497E+05      0.4880624707E+05      0.6943652184E+05      0.2596082244E+07
         21                 3           0             3  400     1       0.1450030481E+04       3  398    1      -0.1337511093E+05      0.3431948177E+05      0.4880624707E+05      0.2596082244E+07
         22                 3           0             3  400     1       0.1015021320E+04       3  398    1      -0.9354735168E+04      0.2417801123E+05      0.3431948177E+05      0.2596082244E+07
         23                 3           0             3  400     1       0.7105149117E+03       3  398    1      -0.6540472183E+04      0.1706552025E+05      0.2417801123E+05      0.2596082244E+07
         24                 3           0             3  400     1       0.4973604297E+03       3  398    1      -0.4570488127E+04      0.1209606527E+05      0.1706552025E+05      0.2596082244E+07
         25                 3           0             3  400     1       0.3481522949E+03       3  398    1      -0.3191499311E+04      0.8633996270E+04      0.1209606527E+05      0.2596082244E+07
                                                   Max.-Head-Change                        Max.-Flux-Residual
  Residual-Control   Outer-Iter.   Inner-Iter.     Column Row Layer    Max.-Head-Change    Column Row Layer    Max.-Flux-Residual            L2-New               L2-Old           Solver-Max-Delh
         26                 3           0             3  400     1       0.2437066023E+03       3  398    1      -0.2226207157E+04      0.6252305572E+04      0.8633996270E+04      0.2596082244E+07
         27                 3           0             3  400     1       0.1705946187E+03       3  398    1      -0.1550502660E+04      0.4625630199E+04      0.6252305572E+04      0.2596082244E+07
         28                 3           0             3  400     1       0.1194162310E+03       3  398    1      -0.1077509521E+04      0.3534530276E+04      0.4625630199E+04      0.2596082244E+07
         29                 3           0             3  400     1       0.8359136031E+02       3  398    1      -0.5586430560E+03      0.2969378286E+04      0.3534530276E+04      0.2596082244E+07
         30                 3           0             3  400     1       0.5851395122E+02       3  398    1      -0.2734109347E+03      0.2810539281E+04      0.2969378286E+04      0.2596082244E+07
         31                 3           0             3  400     1       0.4095976515E+02       3  398    1      -0.1336463930E+03      0.2771140548E+04      0.2810539281E+04      0.2596082244E+07
         32                 3           0             3  400     1       0.2867183512E+02     367  279    1       0.7012900737E+02      0.2761648583E+04      0.2771140548E+04      0.2596082244E+07
         33                 3           0             3  400     1       0.2007028424E+02     367  279    1       0.7012937629E+02      0.2759393712E+04      0.2761648583E+04      0.2596082244E+07
         34                 3           0             3  400     1       0.1404919873E+02     367  279    1       0.7012963453E+02      0.2758868981E+04      0.2759393712E+04      0.2596082244E+07
         35                 3           0             3  400     1       0.9834438944E+01     367  279    1       0.7012981531E+02      0.2758753197E+04      0.2758868981E+04      0.2596082244E+07
                                                   Max.-Head-Change                        Max.-Flux-Residual
  Residual-Control   Outer-Iter.   Inner-Iter.     Column Row Layer    Max.-Head-Change    Column Row Layer    Max.-Flux-Residual            L2-New               L2-Old           Solver-Max-Delh
         36                 3           0             3  400     1       0.6884107143E+01     367  279    1       0.7012994185E+02      0.2758731752E+04      0.2758753197E+04      0.2596082244E+07
         37                 3           0             3  400     1       0.4818874918E+01     367  279    1       0.7013003043E+02      0.2758730662E+04      0.2758731752E+04      0.2596082244E+07
          0                 4         200            37  395     1       0.3568620657E+07     367  279    1       0.7013009243E+02      0.2758733051E+04      0.2758730662E+04      0.3568620657E+07
          1                 4           0            37  395     1       0.2498034417E+07       1  366    1      -0.7809651249E+07      0.8285115672E+08      0.2758733051E+04      0.3568620657E+07
          2                 4           0            37  395     1       0.1748624062E+07       1  366    1      -0.5466754480E+07      0.5799382952E+08      0.8285115672E+08      0.3568620657E+07
          3                 4           0            37  395     1       0.1224036823E+07       1  366    1      -0.3826726770E+07      0.4059455866E+08      0.5799382952E+08      0.3568620657E+07
          4                 4           0            37  395     1       0.8568257613E+06       1  366    1      -0.2678707392E+07      0.2841499549E+08      0.4059455866E+08      0.3568620657E+07
          5                 4           0            37  395     1       0.5997780227E+06       1  366    1      -0.1875093842E+07      0.1988912910E+08      0.2841499549E+08      0.3568620657E+07
          6                 4           0            37  395     1       0.4198446087E+06       1  366    1      -0.1312564366E+07      0.1392167253E+08      0.1988912910E+08      0.3568620657E+07
          7                 4           0            37  395     1       0.2938912211E+06       1  366    1      -0.9187937396E+06      0.9744452823E+07      0.1392167253E+08      0.3568620657E+07
                                                   Max.-Head-Change                        Max.-Flux-Residual
  Residual-Control   Outer-Iter.   Inner-Iter.     Column Row Layer    Max.-Head-Change    Column Row Layer    Max.-Flux-Residual            L2-New               L2-Old           Solver-Max-Delh
          8                 4           0            37  395     1       0.2057238513E+06       1  366    1      -0.6431543059E+06      0.6820338142E+07      0.9744452823E+07      0.3568620657E+07
          9                 4           0            37  395     1       0.1440066934E+06       1  366    1      -0.4502067055E+06      0.4773498591E+07      0.6820338142E+07      0.3568620657E+07
         10                 4           0            37  395     1       0.1008046837E+06       1  366    1      -0.3151433876E+06      0.3341476469E+07      0.4773498591E+07      0.3568620657E+07
         11                 4           0            37  395     1       0.7056327738E+05       1  366    1      -0.2205990666E+06      0.2339464119E+07      0.3341476469E+07      0.3568620657E+07
         12                 4           0            37  395     1       0.4939429332E+05       1  366    1      -0.1544180431E+06      0.1638284480E+07      0.2339464119E+07      0.3568620657E+07
         13                 4           0            37  395     1       0.3457600474E+05       1  366    1      -0.1080913274E+06      0.1147585566E+07      0.1638284480E+07      0.3568620657E+07
         14                 4           0            37  395     1       0.2420320290E+05       1  366    1      -0.7566262694E+05      0.8042082067E+06      0.1147585566E+07      0.3568620657E+07
         15                 4           0            37  395     1       0.1694224174E+05       1  366    1      -0.5296253703E+05      0.5639864675E+06      0.8042082067E+06      0.3568620657E+07
         16                 4           0            37  395     1       0.1185956902E+05       1  366    1      -0.3707247436E+05      0.3959200710E+06      0.5639864675E+06      0.3568620657E+07
         17                 4           0            37  395     1       0.8301698172E+04       1  366    1      -0.2594943068E+05      0.2784020060E+06      0.3959200710E+06      0.3568620657E+07
                                                   Max.-Head-Change                        Max.-Flux-Residual
  Residual-Control   Outer-Iter.   Inner-Iter.     Column Row Layer    Max.-Head-Change    Column Row Layer    Max.-Flux-Residual            L2-New               L2-Old           Solver-Max-Delh
         18                 4           0            37  395     1       0.5811188621E+04       1  366    1      -0.1816330023E+05      0.1962413982E+06      0.2784020060E+06      0.3568620657E+07
         19                 4           0            37  395     1       0.4067831966E+04       1  366    1      -0.1271300902E+05      0.1387766814E+06      0.1962413982E+06      0.3568620657E+07
         20                 4           0            37  395     1       0.2847482328E+04       1  366    1      -0.8897805229E+04      0.9858364595E+05      0.1387766814E+06      0.3568620657E+07
         21                 4           0            37  395     1       0.1993237595E+04       1  366    1      -0.6227162624E+04      0.7041800488E+05      0.9858364595E+05      0.3568620657E+07
         22                 4           0            37  395     1       0.1395266293E+04       2  352    1       0.4650987158E+04      0.5056103974E+05      0.7041800488E+05      0.3568620657E+07
         23                 4           0            37  395     1       0.9766863885E+03       1  353    1       0.3521743728E+04      0.3645380528E+05      0.5056103974E+05      0.3568620657E+07
         24                 4           0            37  395     1       0.6836804603E+03       1  354    1       0.3254892011E+04      0.2628740384E+05      0.3645380528E+05      0.3568620657E+07
         25                 4           0            37  395     1       0.4785763140E+03       3  355    1       0.1929990815E+04      0.1879170014E+05      0.2628740384E+05      0.3568620657E+07
         26                 4           0            37  395     1       0.3350034141E+03       2  357    1       0.1352114744E+04      0.1308329505E+05      0.1879170014E+05      0.3568620657E+07
         27                 4           0            37  395     1       0.2345023859E+03       1  366    1      -0.7287931227E+03      0.8726609663E+04      0.1308329505E+05      0.3568620657E+07
                                                   Max.-Head-Change                        Max.-Flux-Residual
  Residual-Control   Outer-Iter.   Inner-Iter.     Column Row Layer    Max.-Head-Change    Column Row Layer    Max.-Flux-Residual            L2-New               L2-Old           Solver-Max-Delh
         28                 4           0            37  395     1       0.1641516673E+03       1  366    1      -0.5088542466E+03      0.5501984871E+04      0.8726609663E+04      0.3568620657E+07
         29                 4           0            37  395     1       0.1149061652E+03       1  366    1      -0.2587017527E+03      0.3634991789E+04      0.5501984871E+04      0.3568620657E+07
          0                 5          88            84  300     1       0.6136388866E+04       1  366    1      -0.1267527679E+03      0.2997135863E+04      0.3634991789E+04      0.6136388866E+04
          1                 5           0            84  300     1       0.4295472133E+04     337  163    1      -0.8091060092E+06      0.3386274099E+07      0.2997135863E+04      0.6136388866E+04
          2                 5           0            84  300     1       0.3006830442E+04     337  163    1      -0.5663745054E+06      0.2363536175E+07      0.3386274099E+07      0.6136388866E+04
          3                 5           0            84  300     1       0.2104781274E+04     337  163    1      -0.3964624558E+06      0.1650313320E+07      0.2363536175E+07      0.6136388866E+04
          4                 5           0            84  300     1       0.1473346866E+04     337  163    1      -0.2775240231E+06      0.1150442766E+07      0.1650313320E+07      0.6136388866E+04
          5                 5           0            84  300     1       0.1031342789E+04     337  163    1      -0.1942671216E+06      0.8017405987E+06      0.1150442766E+07      0.6136388866E+04
          6                 5           0            84  300     1       0.7219399399E+03     337  163    1      -0.1359872916E+06      0.5608606974E+06      0.8017405987E+06      0.6136388866E+04
          7                 5           0            84  300     1       0.5053579494E+03     337  163    1      -0.8200681515E+05      0.3915296265E+06      0.5608606974E+06      0.6136388866E+04
                                                   Max.-Head-Change                        Max.-Flux-Residual
  Residual-Control   Outer-Iter.   Inner-Iter.     Column Row Layer    Max.-Head-Change    Column Row Layer    Max.-Flux-Residual            L2-New               L2-Old           Solver-Max-Delh
          8                 5           0            84  300     1       0.3537505585E+03     337  163    1      -0.4018351424E+05      0.2700175555E+06      0.3915296265E+06      0.6136388866E+04
          9                 5           0            84  300     1       0.2476253868E+03     337  163    1      -0.1969004462E+05      0.1796355761E+06      0.2700175555E+06      0.6136388866E+04
         10                 5           0            84  300     1       0.1733377678E+03     337  163    1      -0.9648207848E+04      0.1074069462E+06      0.1796355761E+06      0.6136388866E+04
         11                 5           0            84  300     1       0.1213364354E+03     337  163    1      -0.4727682091E+04      0.5579841362E+05      0.1074069462E+06      0.6136388866E+04
         12                 5           0            84  300     1       0.8493550332E+02     337  163    1      -0.2316606419E+04      0.2746364503E+05      0.5579841362E+05      0.6136388866E+04
         13                 5           0            84  300     1       0.5945485131E+02     337  163    1      -0.1135166718E+04      0.1371578546E+05      0.2746364503E+05      0.6136388866E+04
         14                 5           0            84  300     1       0.4161839521E+02     337  163    1      -0.5562523525E+03      0.7214770857E+04      0.1371578546E+05      0.6136388866E+04
         15                 5           0            84  300     1       0.2913287615E+02     337  163    1      -0.2725781265E+03      0.4396021036E+04      0.7214770857E+04      0.6136388866E+04
         16                 5           0            84  300     1       0.2039301296E+02     337  163    1      -0.1335734043E+03      0.3383451855E+04      0.4396021036E+04      0.6136388866E+04
          0                 6          88           216  275     1       0.1578910876E+03       1  366    1      -0.1263513730E+03      0.3090846874E+04      0.3383451855E+04      0.1578910876E+03
                                                   Max.-Head-Change                        Max.-Flux-Residual
  Residual-Control   Outer-Iter.   Inner-Iter.     Column Row Layer    Max.-Head-Change    Column Row Layer    Max.-Flux-Residual            L2-New               L2-Old           Solver-Max-Delh
          1                 6           0           216  275     1       0.1105237595E+03     216  275    1      -0.6467967223E+05      0.1094345203E+06      0.3090846874E+04      0.1578910876E+03
          2                 6           0           216  275     1       0.7736663031E+02     216  275    1      -0.3169255803E+05      0.5360352660E+05      0.1094345203E+06      0.1578910876E+03
          3                 6           0           216  275     1       0.5415664029E+02     216  275    1      -0.1552901669E+05      0.2629056912E+05      0.5360352660E+05      0.1578910876E+03
          4                 6           0           216  275     1       0.3790964756E+02     216  275    1      -0.7608982551E+04      0.1299601974E+05      0.2629056912E+05      0.1578910876E+03
          5                 6           0           216  275     1       0.2653675284E+02     216  275    1      -0.3728236546E+04      0.6679680962E+04      0.1299601974E+05      0.1578910876E+03
          6                 6           0           216  275     1       0.1857572667E+02     216  275    1      -0.1826720483E+04      0.3955188911E+04      0.6679680962E+04      0.1578910876E+03
          0                 7          85           308  270     1       0.3873182193E+03     216  275    1      -0.8950122345E+03      0.3056118511E+04      0.3955188911E+04      0.3873182193E+03
          1                 7           0           195  319     1       0.1846096881E+03     195  319    1      -0.1144663364E+06      0.3247988864E+06      0.3056118511E+04      0.3873182193E+03
          2                 7           0           195  319     1       0.1292267795E+03     195  319    1      -0.8012641447E+05      0.1883888661E+06      0.3247988864E+06      0.3873182193E+03
          3                 7           0           195  319     1       0.9045874409E+02     195  319    1      -0.4881259482E+05      0.9917742091E+05      0.1883888661E+06      0.3873182193E+03
                                                   Max.-Head-Change                        Max.-Flux-Residual
  Residual-Control   Outer-Iter.   Inner-Iter.     Column Row Layer    Max.-Head-Change    Column Row Layer    Max.-Flux-Residual            L2-New               L2-Old           Solver-Max-Delh
          4                 7           0           195  319     1       0.6332111978E+02     195  319    1      -0.2391815274E+05      0.4862835537E+05      0.9917742091E+05      0.3873182193E+03
          5                 7           0           195  319     1       0.4432478309E+02     195  319    1      -0.1171988188E+05      0.2391515543E+05      0.4862835537E+05      0.3873182193E+03
          6                 7           0           195  319     1       0.3102734764E+02     195  319    1      -0.5742733107E+04      0.1192917377E+05      0.2391515543E+05      0.3873182193E+03
          7                 7           0           195  319     1       0.2171914298E+02     195  319    1      -0.2813932928E+04      0.6305404081E+04      0.1192917377E+05      0.3873182193E+03
          8                 7           0           195  319     1       0.1520339982E+02     195  319    1      -0.1378822723E+04      0.3947592889E+04      0.6305404081E+04      0.3873182193E+03
          0                 8          87           383  314     1       0.4426987608E+03     216  275    1      -0.8552330469E+03      0.3178778051E+04      0.3947592889E+04      0.4426987608E+03
          1                 8           0           383  314     1       0.3098891273E+03     383  314    1      -0.2454917566E+06      0.4160249169E+06      0.3178778051E+04      0.4426987608E+03
          2                 8           0           383  314     1       0.2169223854E+03     383  314    1      -0.1718415837E+06      0.2809142487E+06      0.4160249169E+06      0.4426987608E+03
          3                 8           0           383  314     1       0.1518456672E+03     383  314    1      -0.1202864636E+06      0.1826396810E+06      0.2809142487E+06      0.4426987608E+03
          4                 8           0           383  314     1       0.1062919652E+03     383  314    1      -0.8308594207E+05      0.1107341177E+06      0.1826396810E+06      0.4426987608E+03
                                                   Max.-Head-Change                        Max.-Flux-Residual
  Residual-Control   Outer-Iter.   Inner-Iter.     Column Row Layer    Max.-Head-Change    Column Row Layer    Max.-Flux-Residual            L2-New               L2-Old           Solver-Max-Delh
          5                 8           0           383  314     1       0.7440437439E+02     383  314    1      -0.4071027569E+05      0.5429775436E+05      0.1107341177E+06      0.4426987608E+03
          6                 8           0           383  314     1       0.5208306119E+02     383  314    1      -0.1994675021E+05      0.2670709827E+05      0.5429775436E+05      0.4426987608E+03
          7                 8           0           383  314     1       0.3645814221E+02     383  314    1      -0.9773008306E+04      0.1331923664E+05      0.2670709827E+05      0.4426987608E+03
          8                 8           0           383  314     1       0.2552069911E+02     383  314    1      -0.4788144612E+04      0.7016563140E+04      0.1331923664E+05      0.4426987608E+03
          9                 8           0           383  314     1       0.1786448907E+02     383  314    1      -0.2345750252E+04      0.4335652207E+04      0.7016563140E+04      0.4426987608E+03
          0                 9          87           308  267     1       0.3864528233E+03     383  314    1      -0.1149109193E+04      0.3424889462E+04      0.4335652207E+04      0.3864528233E+03
          1                 9           0           308  267     1       0.2705169717E+03     308  267    1      -0.1539726397E+06      0.6110008121E+06      0.3424889462E+04      0.3864528233E+03
          2                 9           0           308  267     1       0.1893618769E+03     308  267    1      -0.1077812119E+06      0.3681185988E+06      0.6110008121E+06      0.3864528233E+03
          3                 9           0           308  267     1       0.1325533116E+03     308  267    1      -0.7544721307E+05      0.2049872782E+06      0.3681185988E+06      0.3864528233E+03
          4                 9           0           308  267     1       0.9278731654E+02     308  267    1      -0.4570003206E+05      0.1050796541E+06      0.2049872782E+06      0.3864528233E+03
                                                   Max.-Head-Change                        Max.-Flux-Residual
  Residual-Control   Outer-Iter.   Inner-Iter.     Column Row Layer    Max.-Head-Change    Column Row Layer    Max.-Flux-Residual            L2-New               L2-Old           Solver-Max-Delh
          5                 9           0           308  267     1       0.6495112047E+02     308  267    1      -0.2239323105E+05      0.5154622672E+05      0.1050796541E+06      0.3864528233E+03
          6                 9           0           308  267     1       0.4546578356E+02     308  267    1      -0.1097283409E+05      0.2539047403E+05      0.5154622672E+05      0.3864528233E+03
          7                 9           0           308  267     1       0.3182604795E+02     308  267    1      -0.5376794374E+04      0.1273281480E+05      0.2539047403E+05      0.3864528233E+03
          8                 9           0           308  267     1       0.2227823318E+02     308  267    1      -0.2634703227E+04      0.6834891622E+04      0.1273281480E+05      0.3864528233E+03
          9                 9           0           308  267     1       0.1559476296E+02     308  267    1      -0.1291056366E+04      0.4397550151E+04      0.6834891622E+04      0.3864528233E+03
          0                10          82           184   96     1       0.9136478305E+03     383  314    1      -0.1111021135E+04      0.3606543267E+04      0.4397550151E+04      0.9136478305E+03
          1                10           0           184   96     1       0.2740943601E+03     189  240    1      -0.6331996881E+05      0.9451927901E+05      0.3606543267E+04      0.9136478305E+03
          2                10           0           184   96     1       0.8222831128E+02     189  240    1      -0.3102691588E+05      0.4634393775E+05      0.9451927901E+05      0.9136478305E+03
          3                10           0           189  240     1       0.5082972510E+02     189  240    1      -0.1520167632E+05      0.2279658842E+05      0.4634393775E+05      0.9136478305E+03
          4                10           0           189  240     1       0.3558080696E+02     189  240    1      -0.7447762763E+04      0.1140920083E+05      0.2279658842E+05      0.9136478305E+03
                                                   Max.-Head-Change                        Max.-Flux-Residual
  Residual-Control   Outer-Iter.   Inner-Iter.     Column Row Layer    Max.-Head-Change    Column Row Layer    Max.-Flux-Residual            L2-New               L2-Old           Solver-Max-Delh
          5                10           0           189  240     1       0.2490656445E+02     189  240    1      -0.3648662740E+04      0.6148009636E+04      0.1140920083E+05      0.9136478305E+03
          6                10           0           189  240     1       0.1743459482E+02     189  240    1      -0.1787326037E+04      0.4065993779E+04      0.6148009636E+04      0.9136478305E+03
          0                11          81           185  114     1       0.5721534273E+03     383  314    1      -0.1007366261E+04      0.3481951621E+04      0.4065993779E+04      0.5721534273E+03
          1                11           0           185  114     1       0.4005073923E+03     185  114    1      -0.3292191262E+06      0.7104247659E+06      0.3481951621E+04      0.5721534273E+03
          2                11           0           185  114     1       0.2803551698E+03     185  114    1      -0.2304643440E+06      0.4850959335E+06      0.7104247659E+06      0.5721534273E+03
          3                11           0           185  114     1       0.1962486155E+03     185  114    1      -0.1613245764E+06      0.3242394503E+06      0.4850959335E+06      0.5721534273E+03
          4                11           0           185  114     1       0.1373740285E+03     185  114    1      -0.1129267399E+06      0.2194666505E+06      0.3242394503E+06      0.5721534273E+03
          5                11           0           185  114     1       0.9616181834E+02     185  114    1      -0.7102293708E+05      0.1238686209E+06      0.2194666505E+06      0.5721534273E+03
          6                11           0           185  114     1       0.6731327169E+02     185  114    1      -0.3480093929E+05      0.6075707250E+05      0.1238686209E+06      0.5721534273E+03
          7                11           0           185  114     1       0.4711928938E+02     185  114    1      -0.1705225056E+05      0.2990397162E+05      0.6075707250E+05      0.5721534273E+03
                                                   Max.-Head-Change                        Max.-Flux-Residual
  Residual-Control   Outer-Iter.   Inner-Iter.     Column Row Layer    Max.-Head-Change    Column Row Layer    Max.-Flux-Residual            L2-New               L2-Old           Solver-Max-Delh
          8                11           0           185  114     1       0.3298350201E+02     185  114    1      -0.8355456094E+04      0.1493498334E+05      0.2990397162E+05      0.5721534273E+03
          9                11           0           185  114     1       0.2308845101E+02     185  114    1      -0.4094070845E+04      0.7887893490E+04      0.1493498334E+05      0.5721534273E+03
         10                11           0           185  114     1       0.1616191543E+02     185  114    1      -0.2006022873E+04      0.4882639618E+04      0.7887893490E+04      0.5721534273E+03
         11                11           0           185  114     1       0.1131334061E+02     383  314    1      -0.9839449122E+03      0.3846872797E+04      0.4882639618E+04      0.5721534273E+03
          0                12         108           190  275     1       0.9936858945E+03     383  314    1      -0.9909423918E+03      0.3570910092E+04      0.3846872797E+04      0.9936858945E+03
          1                12           0           190  275     1       0.6955801143E+03     190  275    1      -0.5637009280E+06      0.8922345670E+06      0.3570910092E+04      0.9936858945E+03
          2                12           0           190  275     1       0.4869060717E+03     190  275    1      -0.3945907604E+06      0.6149259730E+06      0.8922345670E+06      0.9936858945E+03
          3                12           0           190  275     1       0.3408342444E+03     190  275    1      -0.2762136451E+06      0.4249031162E+06      0.6149259730E+06      0.9936858945E+03
          4                12           0           190  275     1       0.2385839670E+03     190  275    1      -0.1933496658E+06      0.2913000852E+06      0.4249031162E+06      0.9936858945E+03
          5                12           0           190  275     1       0.1670087741E+03     190  275    1      -0.1353448813E+06      0.1922360232E+06      0.2913000852E+06      0.9936858945E+03
                                                   Max.-Head-Change                        Max.-Flux-Residual
  Residual-Control   Outer-Iter.   Inner-Iter.     Column Row Layer    Max.-Head-Change    Column Row Layer    Max.-Flux-Residual            L2-New               L2-Old           Solver-Max-Delh
          6                12           0           190  275     1       0.1169061399E+03     190  275    1      -0.9474153280E+05      0.1244299868E+06      0.1922360232E+06      0.9936858945E+03
          7                12           0           190  275     1       0.8183429651E+02     190  275    1      -0.5157915512E+05      0.6601169439E+05      0.1244299868E+06      0.9936858945E+03
          8                12           0           190  275     1       0.5728400658E+02     190  275    1      -0.2527384211E+05      0.3248426246E+05      0.6601169439E+05      0.9936858945E+03
          9                12           0           190  275     1       0.4009880392E+02     190  275    1      -0.1238422206E+05      0.1620052707E+05      0.3248426246E+05      0.9936858945E+03
         10                12           0           190  275     1       0.2806916227E+02     190  275    1      -0.6068296472E+04      0.8499637725E+04      0.1620052707E+05      0.9936858945E+03
         11                12           0           190  275     1       0.1964841325E+02     190  275    1      -0.2973484654E+04      0.5166375534E+04      0.8499637725E+04      0.9936858945E+03
         12                12           0           190  275     1       0.1375388904E+02     190  275    1      -0.1457021046E+04      0.3981218384E+04      0.5166375534E+04      0.9936858945E+03
          0                13          73           206  306     1       0.1362960211E+04     383  314    1      -0.9795497334E+03      0.3649776742E+04      0.3981218384E+04      0.1362960211E+04
          1                13           0           206  306     1       0.9540721312E+03     206  306    1      -0.6124783872E+06      0.8387685741E+06      0.3649776742E+04      0.1362960211E+04
          2                13           0           206  306     1       0.6678504805E+03     206  306    1      -0.4287347891E+06      0.5841698917E+06      0.8387685741E+06      0.1362960211E+04
                                                   Max.-Head-Change                        Max.-Flux-Residual
  Residual-Control   Outer-Iter.   Inner-Iter.     Column Row Layer    Max.-Head-Change    Column Row Layer    Max.-Flux-Residual            L2-New               L2-Old           Solver-Max-Delh
          3                13           0           206  306     1       0.4674953284E+03     206  306    1      -0.3001142727E+06      0.4072796160E+06      0.5841698917E+06      0.1362960211E+04
          4                13           0           206  306     1       0.3272467243E+03     206  306    1      -0.2100799128E+06      0.2846166469E+06      0.4072796160E+06      0.1362960211E+04
          5                13           0           206  306     1       0.2290727031E+03     206  306    1      -0.1470558619E+06      0.1972872691E+06      0.2846166469E+06      0.1362960211E+04
          6                13           0           206  306     1       0.1603508894E+03     206  306    1      -0.1029390270E+06      0.1374213168E+06      0.1972872691E+06      0.1362960211E+04
          7                13           0           206  306     1       0.1122456207E+03     206  306    1      -0.7205724308E+05      0.8839906884E+05      0.1374213168E+06      0.1362960211E+04
          8                13           0           206  306     1       0.7857193315E+02     206  306    1      -0.3719185745E+05      0.4528263079E+05      0.8839906884E+05      0.1362960211E+04
          9                13           0           206  306     1       0.5500035227E+02     206  306    1      -0.1822396569E+05      0.2239800474E+05      0.4528263079E+05      0.1362960211E+04
         10                13           0           206  306     1       0.3850024593E+02     206  306    1      -0.8929712173E+04      0.1140349339E+05      0.2239800474E+05      0.1362960211E+04
         11                13           0           206  306     1       0.2695017169E+02     206  306    1      -0.4375537295E+04      0.6401512366E+04      0.1140349339E+05      0.1362960211E+04
         12                13           0           206  306     1       0.1886511986E+02     206  306    1      -0.2143998114E+04      0.4440125669E+04      0.6401512366E+04      0.1362960211E+04
                                                   Max.-Head-Change                        Max.-Flux-Residual
  Residual-Control   Outer-Iter.   Inner-Iter.     Column Row Layer    Max.-Head-Change    Column Row Layer    Max.-Flux-Residual            L2-New               L2-Old           Solver-Max-Delh
          0                14          88           327  258     1       0.6125763896E+03     206  306    1      -0.1050548456E+04      0.3833239556E+04      0.4440125669E+04      0.6125763896E+03
          1                14           0           327  258     1       0.4288034654E+03     327  258    1      -0.3733734005E+06      0.5516710912E+06      0.3833239556E+04      0.6125763896E+03
          2                14           0           327  258     1       0.3001624207E+03     327  258    1      -0.2613617824E+06      0.3695955151E+06      0.5516710912E+06      0.6125763896E+03
          3                14           0           327  258     1       0.2101136909E+03     327  258    1      -0.1829536511E+06      0.2367195532E+06      0.3695955151E+06      0.6125763896E+03
          4                14           0           327  258     1       0.1470795811E+03     327  258    1      -0.1280679601E+06      0.1546711894E+06      0.2367195532E+06      0.6125763896E+03
          5                14           0           327  258     1       0.1029557050E+03     327  258    1      -0.8444147701E+05      0.9871261988E+05      0.1546711894E+06      0.6125763896E+03
          6                14           0           327  258     1       0.7206899229E+02     327  258    1      -0.4137658091E+05      0.4845983338E+05      0.9871261988E+05      0.6125763896E+03
          7                14           0           327  258     1       0.5044829375E+02     327  258    1      -0.2027470494E+05      0.2394257322E+05      0.4845983338E+05      0.6125763896E+03
          8                14           0           327  258     1       0.3531380502E+02     327  258    1      -0.9934731753E+04      0.1214623145E+05      0.2394257322E+05      0.6125763896E+03
          9                14           0           327  258     1       0.2471966309E+02     327  258    1      -0.4868107041E+04      0.6758782353E+04      0.1214623145E+05      0.6125763896E+03
                                                   Max.-Head-Change                        Max.-Flux-Residual
  Residual-Control   Outer-Iter.   Inner-Iter.     Column Row Layer    Max.-Head-Change    Column Row Layer    Max.-Flux-Residual            L2-New               L2-Old           Solver-Max-Delh
         10                14           0           327  258     1       0.1730376387E+02     327  258    1      -0.2385434402E+04      0.4636128267E+04      0.6758782353E+04      0.6125763896E+03
          0                15          81           200  294     1       0.1242801339E+04     327  258    1      -0.1168906219E+04      0.3984809386E+04      0.4636128267E+04      0.1242801339E+04
          1                15           0           200  294     1       0.8699609221E+03     200  294    1      -0.5752756651E+06      0.8732372378E+06      0.3984809386E+04      0.1242801339E+04
          2                15           0           200  294     1       0.6089726351E+03     200  294    1      -0.4026807105E+06      0.6103712721E+06      0.8732372378E+06      0.1242801339E+04
          3                15           0           200  294     1       0.4262808373E+03     200  294    1      -0.2818642444E+06      0.4240541957E+06      0.6103712721E+06      0.1242801339E+04
          4                15           0           200  294     1       0.2983965811E+03     200  294    1      -0.1972927195E+06      0.2909346748E+06      0.4240541957E+06      0.1242801339E+04
          5                15           0           200  294     1       0.2088776032E+03     200  294    1      -0.1380926532E+06      0.1961509750E+06      0.2909346748E+06      0.1242801339E+04
          6                15           0           200  294     1       0.1462143197E+03     200  294    1      -0.9665260738E+05      0.1344331657E+06      0.1961509750E+06      0.1242801339E+04
          7                15           0           200  294     1       0.1023500221E+03     200  294    1      -0.6508983240E+05      0.8435138351E+05      0.1344331657E+06      0.1242801339E+04
          8                15           0           200  294     1       0.7164501423E+02     200  294    1      -0.3188575972E+05      0.4144936875E+05      0.8435138351E+05      0.1242801339E+04
                                                   Max.-Head-Change                        Max.-Flux-Residual
  Residual-Control   Outer-Iter.   Inner-Iter.     Column Row Layer    Max.-Head-Change    Column Row Layer    Max.-Flux-Residual            L2-New               L2-Old           Solver-Max-Delh
          9                15           0           200  294     1       0.5015150911E+02     200  294    1      -0.1561824177E+05      0.2057416731E+05      0.4144936875E+05      0.1242801339E+04
         10                15           0           200  294     1       0.3510605578E+02     200  294    1      -0.7648892208E+04      0.1062770159E+05      0.2057416731E+05      0.1242801339E+04
         11                15           0           200  294     1       0.2457423863E+02     200  294    1      -0.3745124837E+04      0.6222379850E+04      0.1062770159E+05      0.1242801339E+04
         12                15           0           200  294     1       0.1720196674E+02     200  294    1      -0.1833128535E+04      0.4589965021E+04      0.6222379850E+04      0.1242801339E+04
          0                16          84           181   88     1       0.1811134859E+03     327  258    1      -0.1170683723E+04      0.4116052955E+04      0.4589965021E+04      0.1811134859E+03
          1                16           0           181   88     1       0.1267794380E+03     181   88    1      -0.1034845360E+06      0.1919483550E+06      0.4116052955E+04      0.1811134859E+03
          2                16           0           181   88     1       0.8874560507E+02     181   88    1      -0.6071335911E+05      0.1012698868E+06      0.1919483550E+06      0.1811134859E+03
          3                16           0           181   88     1       0.6212192249E+02     181   88    1      -0.2974971154E+05      0.4968409545E+05      0.1012698868E+06      0.1811134859E+03
          4                16           0           181   88     1       0.4348534500E+02     181   88    1      -0.1457747475E+05      0.2450465023E+05      0.4968409545E+05      0.1811134859E+03
          5                16           0           181   88     1       0.3043974098E+02     181   88    1      -0.7143043970E+04      0.1238119475E+05      0.2450465023E+05      0.1811134859E+03
                                                   Max.-Head-Change                        Max.-Flux-Residual
  Residual-Control   Outer-Iter.   Inner-Iter.     Column Row Layer    Max.-Head-Change    Column Row Layer    Max.-Flux-Residual            L2-New               L2-Old           Solver-Max-Delh
          6                16           0           181   88     1       0.2130781833E+02     181   88    1      -0.3500148514E+04      0.6852974722E+04      0.1238119475E+05      0.1811134859E+03
          7                16           0           181   88     1       0.1491547257E+02     181   88    1      -0.1715112651E+04      0.4713580913E+04      0.6852974722E+04      0.1811134859E+03
          0                17          73           201  286     1       0.1384248836E+03     327  258    1      -0.1113007031E+04      0.4105708803E+04      0.4713580913E+04      0.1384248836E+03
          1                17           0           187  134     1       0.4381949711E+02     187  134    1      -0.1474089386E+05      0.1909290707E+05      0.4105708803E+04      0.1384248836E+03
          2                17           0           187  134     1       0.3067364745E+02     187  134    1      -0.7223063085E+04      0.9576598680E+04      0.1909290707E+05      0.1384248836E+03
          3                17           0           187  134     1       0.2147155285E+02     187  134    1      -0.3539318505E+04      0.5298493745E+04      0.9576598680E+04      0.1384248836E+03
          0                18          78           191  216     1       0.7403466696E+03     187  134    1      -0.1734278386E+04      0.3800828522E+04      0.5298493745E+04      0.7403466696E+03
          1                18           0           400   25     1       0.5117998706E+03     400   25    1      -0.3234816370E+06      0.6648092844E+06      0.3800828522E+04      0.7403466696E+03
          2                18           0           400   25     1       0.3582599033E+03     400   25    1      -0.2264606717E+06      0.4531189660E+06      0.6648092844E+06      0.7403466696E+03
          3                18           0           400   25     1       0.2507819281E+03     400   25    1      -0.1585201999E+06      0.3054085691E+06      0.4531189660E+06      0.7403466696E+03
                                                   Max.-Head-Change                        Max.-Flux-Residual
  Residual-Control   Outer-Iter.   Inner-Iter.     Column Row Layer    Max.-Head-Change    Column Row Layer    Max.-Flux-Residual            L2-New               L2-Old           Solver-Max-Delh
          4                18           0           400   25     1       0.1755473467E+03     400   25    1      -0.1109618705E+06      0.2026829387E+06      0.3054085691E+06      0.7403466696E+03
          5                18           0           400   25     1       0.1228831406E+03     400   25    1      -0.7767104042E+05      0.1217614302E+06      0.2026829387E+06      0.7403466696E+03
          6                18           0           400   25     1       0.8601819693E+02     400   25    1      -0.4231573426E+05      0.6342076182E+05      0.1217614302E+06      0.7403466696E+03
          7                18           0           400   25     1       0.6021273683E+02     400   25    1      -0.2073346788E+05      0.3122956624E+05      0.6342076182E+05      0.7403466696E+03
          8                18           0           400   25     1       0.4214891506E+02     400   25    1      -0.1015853006E+05      0.1562703705E+05      0.3122956624E+05      0.7403466696E+03
          9                18           0           400   25     1       0.2950424004E+02     400   25    1      -0.4977071341E+04      0.8306358634E+04      0.1562703705E+05      0.7403466696E+03
         10                18           0           400   25     1       0.2065296768E+02     400   25    1      -0.2438339102E+04      0.5210742761E+04      0.8306358634E+04      0.7403466696E+03
          0                19          97           387  305     1       0.8098363268E+03     187  134    1      -0.1725832657E+04      0.4154695298E+04      0.5210742761E+04      0.8098363268E+03
          1                19           0           387  305     1       0.5668854191E+03     387  305    1      -0.3233349621E+06      0.7240329731E+06      0.4154695298E+04      0.8098363268E+03
          2                19           0           387  305     1       0.3968197866E+03     387  305    1      -0.2263327951E+06      0.4708130531E+06      0.7240329731E+06      0.8098363268E+03
                                                   Max.-Head-Change                        Max.-Flux-Residual
  Residual-Control   Outer-Iter.   Inner-Iter.     Column Row Layer    Max.-Head-Change    Column Row Layer    Max.-Flux-Residual            L2-New               L2-Old           Solver-Max-Delh
          3                19           0           387  305     1       0.2777738459E+03     387  305    1      -0.1584312793E+06      0.2980936889E+06      0.4708130531E+06      0.8098363268E+03
          4                19           0           387  305     1       0.1944416888E+03     387  305    1      -0.1109002191E+06      0.1919469490E+06      0.2980936889E+06      0.8098363268E+03
          5                19           0           387  305     1       0.1361091798E+03     387  305    1      -0.7762847753E+05      0.1192864365E+06      0.1919469490E+06      0.8098363268E+03
          6                19           0           387  305     1       0.9527642427E+02     387  305    1      -0.4683476166E+05      0.6661951683E+05      0.1192864365E+06      0.8098363268E+03
          7                19           0           387  305     1       0.6669349585E+02     387  305    1      -0.2294801638E+05      0.3281399312E+05      0.6661951683E+05      0.8098363268E+03
          8                19           0           387  305     1       0.4668544630E+02     387  305    1      -0.1124381639E+05      0.1644321434E+05      0.3281399312E+05      0.8098363268E+03
          9                19           0           387  305     1       0.3267981186E+02     387  305    1      -0.5508971943E+04      0.8785006602E+04      0.1644321434E+05      0.8098363268E+03
         10                19           0           387  305     1       0.2287586791E+02     387  305    1      -0.2699047612E+04      0.5572458560E+04      0.8785006602E+04      0.8098363268E+03
          0                20          75           239   22     1       0.7506621265E+02     187  134    1      -0.1702586980E+04      0.4489693361E+04      0.5572458560E+04      0.7506621265E+02
          1                20           0           193  126     1       0.2345735779E+02     193  126    1      -0.3616707229E+04      0.6883919774E+04      0.4489693361E+04      0.7506621265E+02
                                                   Max.-Head-Change                        Max.-Flux-Residual
  Residual-Control   Outer-Iter.   Inner-Iter.     Column Row Layer    Max.-Head-Change    Column Row Layer    Max.-Flux-Residual            L2-New               L2-Old           Solver-Max-Delh
          0                21          73           240  324     1       0.4245940750E+03     193  126    1      -0.1772034787E+04      0.4147373930E+04      0.6883919774E+04      0.4245940750E+03
          1                21           0           240  324     1       0.2972158475E+03     240  324    1      -0.1840037119E+06      0.3427117484E+06      0.4147373930E+04      0.4245940750E+03
          2                21           0           240  324     1       0.2080510897E+03     240  324    1      -0.1288021602E+06      0.2195841357E+06      0.3427117484E+06      0.4245940750E+03
          3                21           0           240  324     1       0.1456357603E+03     240  324    1      -0.9016107459E+05      0.1458741539E+06      0.2195841357E+06      0.4245940750E+03
          4                21           0           240  324     1       0.1019450305E+03     240  324    1      -0.6004888065E+05      0.8882671398E+05      0.1458741539E+06      0.4245940750E+03
          5                21           0           240  324     1       0.7136152011E+02     240  324    1      -0.2942365347E+05      0.4363045145E+05      0.8882671398E+05      0.4245940750E+03
          6                21           0           240  324     1       0.4995306323E+02     240  324    1      -0.1441738175E+05      0.2162041010E+05      0.4363045145E+05      0.4245940750E+03
          7                21           0           240  324     1       0.3496714366E+02     240  324    1      -0.7064371225E+04      0.1111023480E+05      0.2162041010E+05      0.4245940750E+03
          8                21           0           240  324     1       0.2447700015E+02     240  324    1      -0.3461439846E+04      0.6435541751E+04      0.1111023480E+05      0.4245940750E+03
          9                21           0           240  324     1       0.1713389981E+02     240  324    1      -0.1696034088E+04      0.4704140125E+04      0.6435541751E+04      0.4245940750E+03
                                                   Max.-Head-Change                        Max.-Flux-Residual
  Residual-Control   Outer-Iter.   Inner-Iter.     Column Row Layer    Max.-Head-Change    Column Row Layer    Max.-Flux-Residual            L2-New               L2-Old           Solver-Max-Delh
          0                22          80           195  105     1       0.8945294734E+03     193  126    1      -0.1712717457E+04      0.4217272106E+04      0.4704140125E+04      0.8945294734E+03
          1                22           0           195  105     1       0.6261706207E+03     195  105    1      -0.3800578919E+06      0.8943730158E+06      0.4217272106E+04      0.8945294734E+03
          2                22           0           195  105     1       0.4383194270E+03     195  105    1      -0.2660397422E+06      0.5951502144E+06      0.8943730158E+06      0.8945294734E+03
          3                22           0           195  105     1       0.3068235937E+03     195  105    1      -0.1862270388E+06      0.3970358313E+06      0.5951502144E+06      0.8945294734E+03
          4                22           0           195  105     1       0.2147765119E+03     195  105    1      -0.1303581474E+06      0.2651794232E+06      0.3970358313E+06      0.8945294734E+03
          5                22           0           195  105     1       0.1503435558E+03     195  105    1      -0.9124992400E+05      0.1718723145E+06      0.2651794232E+06      0.8945294734E+03
          6                22           0           195  105     1       0.1052404873E+03     195  105    1      -0.6130336152E+05      0.1014498296E+06      0.1718723145E+06      0.8945294734E+03
          7                22           0           195  105     1       0.7366833983E+02     195  105    1      -0.3003811697E+05      0.4982461329E+05      0.1014498296E+06      0.8945294734E+03
          8                22           0           195  105     1       0.5156783700E+02     195  105    1      -0.1471830639E+05      0.2466045864E+05      0.4982461329E+05      0.8945294734E+03
          9                22           0           195  105     1       0.3609748528E+02     195  105    1      -0.7211710565E+04      0.1259199107E+05      0.2466045864E+05      0.8945294734E+03
                                                   Max.-Head-Change                        Max.-Flux-Residual
  Residual-Control   Outer-Iter.   Inner-Iter.     Column Row Layer    Max.-Head-Change    Column Row Layer    Max.-Flux-Residual            L2-New               L2-Old           Solver-Max-Delh
         10                22           0           195  105     1       0.2526823927E+02     195  105    1      -0.3533556513E+04      0.7135415629E+04      0.1259199107E+05      0.8945294734E+03
         11                22           0           195  105     1       0.1768776719E+02     195  105    1      -0.1731315532E+04      0.5027382252E+04      0.7135415629E+04      0.8945294734E+03
          0                23          72           237   22     1       0.1265414505E+03     193  126    1      -0.1684271706E+04      0.4388823413E+04      0.5027382252E+04      0.1265414505E+03
          1                23           0           302   83     1       0.4292155576E+02     302   83    1      -0.9377503445E+04      0.1410580264E+05      0.4388823413E+04      0.1265414505E+03
          2                23           0           302   83     1       0.3004508852E+02     302   83    1      -0.4594902931E+04      0.7269936543E+04      0.1410580264E+05      0.1265414505E+03
          0                24          76           192  106     1       0.2228425285E+03     302   83    1      -0.2251450822E+04      0.4464710789E+04      0.7269936543E+04      0.2228425285E+03
          1                24           0           192  106     1       0.1559897673E+03     192  106    1      -0.1355588500E+06      0.1892359015E+06      0.4464710789E+04      0.2228425285E+03
          2                24           0           192  106     1       0.1091928352E+03     192  106    1      -0.9489103510E+05      0.1198012346E+06      0.1892359015E+06      0.2228425285E+03
          3                24           0           192  106     1       0.7643498336E+02     192  106    1      -0.4664657896E+05      0.5893141351E+05      0.1198012346E+06      0.2228425285E+03
          4                24           0           192  106     1       0.5350448744E+02     192  106    1      -0.2285673807E+05      0.2906347558E+05      0.5893141351E+05      0.2228425285E+03
                                                   Max.-Head-Change                        Max.-Flux-Residual
  Residual-Control   Outer-Iter.   Inner-Iter.     Column Row Layer    Max.-Head-Change    Column Row Layer    Max.-Flux-Residual            L2-New               L2-Old           Solver-Max-Delh
          5                24           0           192  106     1       0.3745314057E+02     192  106    1      -0.1119974186E+05      0.1465580140E+05      0.2906347558E+05      0.2228425285E+03
          6                24           0           192  106     1       0.2621719795E+02     192  106    1      -0.5487831712E+04      0.8027133312E+04      0.1465580140E+05      0.2228425285E+03
          7                24           0           192  106     1       0.1835203825E+02     192  106    1      -0.2689008299E+04      0.5384153364E+04      0.8027133312E+04      0.2228425285E+03
          0                25          84           192  123     1       0.4465523284E+03     302   83    1      -0.2160499413E+04      0.4577887834E+04      0.5384153364E+04      0.4465523284E+03
          1                25           0           294   66     1       0.3025355744E+03     294   66    1      -0.2166744144E+06      0.4150757977E+06      0.4577887834E+04      0.4465523284E+03
          2                25           0           294   66     1       0.2117748985E+03     294   66    1      -0.1516718991E+06      0.2612477065E+06      0.4150757977E+06      0.4465523284E+03
          3                25           0           294   66     1       0.1482424264E+03     294   66    1      -0.1061701391E+06      0.1614460473E+06      0.2612477065E+06      0.4465523284E+03
          4                25           0           294   66     1       0.1037696967E+03     294   66    1      -0.6879537579E+05      0.9399603943E+05      0.1614460473E+06      0.4465523284E+03
          5                25           0           294   66     1       0.7263878647E+02     294   66    1      -0.3370960304E+05      0.4619260135E+05      0.9399603943E+05      0.4465523284E+03
          6                25           0           294   66     1       0.5084714967E+02     294   66    1      -0.1651761395E+05      0.2292970078E+05      0.4619260135E+05      0.4465523284E+03
                                                   Max.-Head-Change                        Max.-Flux-Residual
  Residual-Control   Outer-Iter.   Inner-Iter.     Column Row Layer    Max.-Head-Change    Column Row Layer    Max.-Flux-Residual            L2-New               L2-Old           Solver-Max-Delh
          7                25           0           294   66     1       0.3559300416E+02     294   66    1      -0.8093566854E+04      0.1185010200E+05      0.2292970078E+05      0.4465523284E+03
          8                25           0           294   66     1       0.2491510249E+02     294   66    1      -0.3965803012E+04      0.6958488221E+04      0.1185010200E+05      0.4465523284E+03
          9                25           0           294   66     1       0.1744057144E+02     302   83    1      -0.2099199291E+04      0.5166926447E+04      0.6958488221E+04      0.4465523284E+03
          0                26          84           192   99     1       0.1021286849E+03     302   83    1      -0.2117496845E+04      0.4662741965E+04      0.5166926447E+04      0.1021286849E+03
          1                26           0           192   99     1       0.7149007820E+02     192   99    1      -0.2304888789E+05      0.4761714745E+05      0.4662741965E+04      0.1021286849E+03
          2                26           0           192   99     1       0.5004305389E+02     192   99    1      -0.1128735900E+05      0.2348927387E+05      0.4761714745E+05      0.1021286849E+03
          3                26           0           192   99     1       0.3503013712E+02     192   99    1      -0.5526188725E+04      0.1192225021E+05      0.2348927387E+05      0.1021286849E+03
          4                26           0           192   99     1       0.2452109557E+02     192   99    1      -0.2704600469E+04      0.6753305194E+04      0.1192225021E+05      0.1021286849E+03
          0                27          81           172  133     1       0.2154195179E+03     302   83    1      -0.1872895606E+04      0.4879871687E+04      0.6753305194E+04      0.2154195179E+03
          1                27           0           172  133     1       0.1507936600E+03     172  133    1      -0.1254797681E+06      0.1580036040E+06      0.4879871687E+04      0.2154195179E+03
                                                   Max.-Head-Change                        Max.-Flux-Residual
  Residual-Control   Outer-Iter.   Inner-Iter.     Column Row Layer    Max.-Head-Change    Column Row Layer    Max.-Flux-Residual            L2-New               L2-Old           Solver-Max-Delh
          2                27           0           172  133     1       0.1055555602E+03     172  133    1      -0.8782472743E+05      0.1044852246E+06      0.1580036040E+06      0.2154195179E+03
          3                27           0           172  133     1       0.7388889086E+02     172  133    1      -0.4374365330E+05      0.5204744782E+05      0.1044852246E+06      0.2154195179E+03
          4                27           0           172  133     1       0.5172222272E+02     172  133    1      -0.2142884883E+05      0.2574565282E+05      0.5204744782E+05      0.2154195179E+03
          5                27           0           172  133     1       0.3620555529E+02     172  133    1      -0.1049625715E+05      0.1316234090E+05      0.2574565282E+05      0.2154195179E+03
          6                27           0           172  133     1       0.2534388827E+02     172  133    1      -0.5140450917E+04      0.7541023832E+04      0.1316234090E+05      0.2154195179E+03
          7                27           0           172  133     1       0.1774072149E+02     172  133    1      -0.2516920402E+04      0.5454807394E+04      0.7541023832E+04      0.2154195179E+03
          0                28          75           194  208     1       0.1697436302E+03     302   83    1      -0.1797145254E+04      0.4882292397E+04      0.5454807394E+04      0.1697436302E+03
          1                28           0           194  208     1       0.1188205391E+03     194  208    1      -0.1040922545E+06      0.1168926271E+06      0.4882292397E+04      0.1697436302E+03
          2                28           0           194  208     1       0.8317437596E+02     194  208    1      -0.5547216765E+05      0.6232225498E+05      0.1168926271E+06      0.1697436302E+03
          3                28           0           194  208     1       0.5822206218E+02     194  208    1      -0.2718571182E+05      0.3072246018E+05      0.6232225498E+05      0.1697436302E+03
                                                   Max.-Head-Change                        Max.-Flux-Residual
  Residual-Control   Outer-Iter.   Inner-Iter.     Column Row Layer    Max.-Head-Change    Column Row Layer    Max.-Flux-Residual            L2-New               L2-Old           Solver-Max-Delh
          4                28           0           194  208     1       0.4075544283E+02     194  208    1      -0.1332231117E+05      0.1547657410E+05      0.3072246018E+05      0.1697436302E+03
          5                28           0           194  208     1       0.2852880950E+02     194  208    1      -0.6527931465E+04      0.8473888129E+04      0.1547657410E+05      0.1697436302E+03
          6                28           0           194  208     1       0.1997016631E+02     194  208    1      -0.3198685737E+04      0.5711324117E+04      0.8473888129E+04      0.1697436302E+03
          0                29          75           297   71     1       0.6492671131E+02     302   83    1      -0.1693735466E+04      0.4899437085E+04      0.5711324117E+04      0.6492671131E+02
          0                30          75           183  133     1       0.1152268042E+04     200  229    1      -0.3507272494E+04      0.5128930186E+04      0.4899437085E+04      0.1152268042E+04
          1                30           0           183  133     1       0.8065876154E+03     183  133    1      -0.6912512175E+06      0.9053712129E+06      0.5128930186E+04      0.1152268042E+04
          2                30           0           183  133     1       0.5646113211E+03     183  133    1      -0.4838582681E+06      0.6222905605E+06      0.9053712129E+06      0.1152268042E+04
          3                30           0           183  133     1       0.3952279181E+03     183  133    1      -0.3386832061E+06      0.4306675559E+06      0.6222905605E+06      0.1152268042E+04
          4                30           0           183  133     1       0.2766595379E+03     183  133    1      -0.2370606643E+06      0.2858329791E+06      0.4306675559E+06      0.1152268042E+04
          5                30           0           183  133     1       0.1936616733E+03     183  133    1      -0.1659248863E+06      0.1927972988E+06      0.2858329791E+06      0.1152268042E+04
                                                   Max.-Head-Change                        Max.-Flux-Residual
  Residual-Control   Outer-Iter.   Inner-Iter.     Column Row Layer    Max.-Head-Change    Column Row Layer    Max.-Flux-Residual            L2-New               L2-Old           Solver-Max-Delh
          6                30           0           183  133     1       0.1355631690E+03     183  133    1      -0.1161298426E+06      0.1324144631E+06      0.1927972988E+06      0.1152268042E+04
          7                30           0           183  133     1       0.9489421667E+02     183  133    1      -0.7243290400E+05      0.8208192398E+05      0.1324144631E+06      0.1152268042E+04
          8                30           0           183  133     1       0.6642595053E+02     183  133    1      -0.3548114832E+05      0.4043412547E+05      0.8208192398E+05      0.1152268042E+04
          9                30           0           183  133     1       0.4649816458E+02     183  133    1      -0.1737808067E+05      0.2027228176E+05      0.4043412547E+05      0.1152268042E+04
         10                30           0           183  133     1       0.3254871465E+02     183  133    1      -0.8509882225E+04      0.1084825302E+05      0.2027228176E+05      0.1152268042E+04
         11                30           0           183  133     1       0.2278409987E+02     183  133    1      -0.4166078221E+04      0.6899828379E+04      0.1084825302E+05      0.1152268042E+04
          0                31          64           198  181     1       0.8067560803E+02     200  229    1      -0.3454449417E+04      0.5567436662E+04      0.6899828379E+04      0.8067560803E+02
          1                31           0           198  181     1       0.5647292466E+02     198  181    1      -0.2571744199E+05      0.3817352068E+05      0.5567436662E+04      0.8067560803E+02
          2                31           0           198  181     1       0.3953104659E+02     198  181    1      -0.1259648760E+05      0.1895453805E+05      0.3817352068E+05      0.8067560803E+02
          3                31           0           198  181     1       0.2767173214E+02     198  181    1      -0.6168737714E+04      0.9952246392E+04      0.1895453805E+05      0.8067560803E+02
                                                   Max.-Head-Change                        Max.-Flux-Residual
  Residual-Control   Outer-Iter.   Inner-Iter.     Column Row Layer    Max.-Head-Change    Column Row Layer    Max.-Flux-Residual            L2-New               L2-Old           Solver-Max-Delh
          4                31           0           198  181     1       0.1937021217E+02     198  181    1      -0.3020202662E+04      0.6271027623E+04      0.9952246392E+04      0.8067560803E+02
          0                32          67           183  144     1       0.3391618658E+03     200  229    1      -0.2802747625E+04      0.5209787634E+04      0.6271027623E+04      0.3391618658E+03
          1                32           0           183  144     1       0.2374133020E+03     183  144    1      -0.1723862698E+06      0.2026473929E+06      0.5209787634E+04      0.3391618658E+03
          2                32           0           183  144     1       0.1661893086E+03     183  144    1      -0.1206531945E+06      0.1391434918E+06      0.2026473929E+06      0.3391618658E+03
          3                32           0           183  144     1       0.1163325140E+03     183  144    1      -0.8444004244E+05      0.9537514478E+05      0.1391434918E+06      0.3391618658E+03
          4                32           0           183  144     1       0.8143275844E+02     183  144    1      -0.4518309951E+05      0.5101715729E+05      0.9537514478E+05      0.3391618658E+03
          5                32           0           183  144     1       0.5700292994E+02     183  144    1      -0.2213050964E+05      0.2529674731E+05      0.5101715729E+05      0.3391618658E+03
          6                32           0           183  144     1       0.3990205028E+02     183  144    1      -0.1083750348E+05      0.1305478069E+05      0.2529674731E+05      0.3391618658E+03
          7                32           0           183  144     1       0.2793143472E+02     183  144    1      -0.5305864390E+04      0.7672667778E+04      0.1305478069E+05      0.3391618658E+03
          8                32           0           183  144     1       0.1955200397E+02     200  229    1      -0.2615120115E+04      0.5734665686E+04      0.7672667778E+04      0.3391618658E+03
                                                   Max.-Head-Change                        Max.-Flux-Residual
[...]
          0                72           4           340  219     1       0.2204852145E+00     351  261    1      -0.2315911724E+00      0.5738461146E+00      0.7553703385E+00      0.2204852145E+00
          0                73           3           351  261     1      -0.3733110899E-01     340  219    1      -0.1894052646E+00      0.4996062588E+00      0.5738461146E+00     -0.3733110899E-01
          0                74           5             1  302     1       0.2801455256E+00     340  219    1      -0.1462932066E+00      0.3827190977E+00      0.4996062588E+00      0.2801455256E+00
          0                75           3            17  299     1       0.1324132534E+00       1  302    1      -0.2236762359E+00      0.3963205843E+00      0.3827190977E+00      0.1324132534E+00
          0                76           5             1  302     1      -0.3194070006E-01       1  302    1      -0.1791103970E+00      0.3184967288E+00      0.3963205843E+00     -0.3194070006E-01
          0                77          10             1  302     1      -0.2826401140E-01       1  302    1      -0.1446682254E+00      0.2525320598E+00      0.3184967288E+00     -0.2826401140E-01
          0                78           3             1  302     1      -0.2498106322E-01       1  302    1      -0.1168149025E+00      0.2006182683E+00      0.2525320598E+00     -0.2498106322E-01
                                                   Max.-Head-Change                        Max.-Flux-Residual
  Residual-Control   Outer-Iter.   Inner-Iter.     Column Row Layer    Max.-Head-Change    Column Row Layer    Max.-Flux-Residual            L2-New               L2-Old           Solver-Max-Delh
          0                79           6             1  302     1      -0.2203566970E-01       1  302    1      -0.9429122260E-01      0.1596015858E+00      0.2006182683E+00     -0.2203566970E-01
          0                80           3             1  302     1      -0.1939108658E-01       1  302    1      -0.7608177519E-01      0.1272460853E+00      0.1596015858E+00     -0.1939108658E-01
          0                81           5             1  302     1      -0.1701670415E-01       1  302    1      -0.6136427947E-01      0.1016239362E+00      0.1272460853E+00     -0.1701670415E-01
          0                82           5             1  302     1      -0.1488582560E-01       1  302    1      -0.4947241432E-01      0.8131500011E-01      0.1016239362E+00     -0.1488582560E-01
          0                83           5             1  302     1      -0.1297491401E-01       1  302    1      -0.3986630420E-01      0.6518280907E-01      0.8131500011E-01     -0.1297491401E-01
          0                84           5             1  302     1      -0.1126330302E-01       1  302    1      -0.3210877701E-01      0.5234594748E-01      0.6518280907E-01     -0.1126330302E-01
          0                85           7             1  302     1      -0.9732971173E-02       1  302    1      -0.2584601610E-01      0.4212715079E-01      0.5234594748E-01     -0.9732971173E-02
          0                86           3             1  302     1      -0.8368293082E-02       1  302    1      -0.2079179370E-01      0.3411299548E-01      0.4212715079E-01     -0.8368293082E-02
          0                87           3             1  302     1      -0.7155738379E-02       1  302    1      -0.1671462604E-01      0.2758341652E-01      0.3411299548E-01     -0.7155738379E-02
          0                88           3             1  302     1      -0.6083429797E-02       1  302    1      -0.1342731317E-01      0.2236331813E-01      0.2758341652E-01     -0.6083429797E-02
                                                   Max.-Head-Change                        Max.-Flux-Residual
  Residual-Control   Outer-Iter.   Inner-Iter.     Column Row Layer    Max.-Head-Change    Column Row Layer    Max.-Flux-Residual            L2-New               L2-Old           Solver-Max-Delh
          0                89           3             1  302     1      -0.5140679901E-02       1  302    1      -0.1077845187E-01      0.1818899549E-01      0.2236331813E-01     -0.5140679901E-02
          0                90           3             1  302     1      -0.4317508357E-02       1  302    1      -0.8645551831E-02      0.1484958981E-01      0.1818899549E-01     -0.4317508357E-02
          0                91           2             1  302     1      -0.3604210384E-02       1  302    1      -0.6929552807E-02      0.1217699826E-01      0.1484958981E-01     -0.3604210384E-02
          0                92           2             1  302     1      -0.2991180597E-02       1  302    1      -0.5550134123E-02      0.9960590742E-02      0.1217699826E-01     -0.2991180597E-02
          0                93           2             1  302     1      -0.2468748713E-02       1  302    1      -0.4442248549E-02      0.8171779287E-02      0.9960590742E-02     -0.2468748713E-02
          0                94           2             1  302     1      -0.2027211062E-02       1  302    1      -0.3553239288E-02      0.6726074371E-02      0.8171779287E-02     -0.2027211062E-02
          0                95           2             1  302     1      -0.1656993975E-02       1  302    1      -0.2840490573E-02      0.5556487553E-02      0.6726074371E-02     -0.1656993975E-02
          0                96           2             1  302     1      -0.1348860268E-02       1  302    1      -0.2269533931E-02      0.4609535354E-02      0.5556487553E-02     -0.1348860268E-02
          0                97           2             1  302     1      -0.1094110908E-02       1  302    1      -0.1812516514E-02      0.3842636055E-02      0.4609535354E-02     -0.1094110908E-02
          0                98           2             1  302     1      -0.8847469187E-03       1  302    1      -0.1446957730E-02      0.3221982129E-02      0.3842636055E-02     -0.8847469187E-03
                                                   Max.-Head-Change                        Max.-Flux-Residual
  Residual-Control   Outer-Iter.   Inner-Iter.     Column Row Layer    Max.-Head-Change    Column Row Layer    Max.-Flux-Residual            L2-New               L2-Old           Solver-Max-Delh
          0                99           2             1  302     1      -0.7135743836E-03       1  302    1      -0.1154736967E-02      0.2720830784E-02      0.3221982129E-02     -0.7135743836E-03
          0               100           2             1  302     1      -0.5742505612E-03       1  302    1      -0.9212680850E-03      0.2317958812E-02      0.2720830784E-02     -0.5742505612E-03
          0               101           2             1  302     1      -0.4612791420E-03       1  302    1      -0.7348258879E-03      0.1996396756E-02      0.2317958812E-02     -0.4612791420E-03
          0               102           2             1  302     1      -0.3699673399E-03       1  302    1      -0.5859970078E-03      0.1742171097E-02      0.1996396756E-02     -0.3699673399E-03
          0               103           2             1  302     1      -0.2963582164E-03       1  302    1      -0.4672328803E-03      0.1543286640E-02      0.1742171097E-02     -0.2963582164E-03
          0               104           2             1  302     1      -0.2371499445E-03     180  154    1      -0.4054017754E-03      0.1389141454E-02      0.1543286640E-02     -0.2371499445E-03
          0               105           2             1  302     1      -0.1896110501E-03     180  154    1      -0.3561553285E-03      0.1270395198E-02      0.1389141454E-02     -0.1896110501E-03
          0               106           2             1  302     1      -0.1514979003E-03     180  154    1      -0.3125458425E-03      0.1179068744E-02      0.1270395198E-02     -0.1514979003E-03
          0               107           2             1  302     1      -0.1209782980E-03     180  154    1      -0.2740160160E-03      0.1108611119E-02      0.1179068744E-02     -0.1209782980E-03
          0               108           2             1  302     1      -0.9656316013E-04     180  154    1      -0.2400398062E-03      0.1053832280E-02      0.1108611119E-02     -0.9656316013E-04
                                                   Max.-Head-Change                        Max.-Flux-Residual
  Residual-Control   Outer-Iter.   Inner-Iter.     Column Row Layer    Max.-Head-Change    Column Row Layer    Max.-Flux-Residual            L2-New               L2-Old           Solver-Max-Delh
          0               109           2             1  302     1      -0.7704695098E-04     180  154    1      -0.2101281727E-03      0.1010739487E-02      0.1053832280E-02     -0.7704695098E-04
          0               110           2             1  302     1      -0.6145673056E-04     180  154    1      -0.1838317184E-03      0.9763156922E-03      0.1010739487E-02     -0.6145673056E-04
          0               111           2             1  302     1      -0.4900923454E-04     180  154    1      -0.1607412000E-03      0.9483117778E-03      0.9763156922E-03     -0.4900923454E-04
          0               112           2             1  302     1      -0.3907515611E-04     180  154    1      -0.1404866170E-03      0.9250641215E-03      0.9483117778E-03     -0.3907515611E-04
          0               113           2           180  154     1      -0.3311293167E-04     180  154    1      -0.1227353887E-03      0.9053418465E-03      0.9250641215E-03     -0.3311293167E-04
          0               114           2           180  154     1      -0.2886468868E-04     180  154    1      -0.1071899885E-03      0.8882414048E-03      0.9053418465E-03     -0.2886468868E-04
          0               115           2           180  154     1      -0.2516030114E-04     180  154    1      -0.9358529179E-04      0.8731005912E-03      0.8882414048E-03     -0.2516030114E-04
          0               116           2           180  154     1      -0.2193040044E-04     243  190    1      -0.8412894886E-04      0.8594336107E-03      0.8731005912E-03     -0.2193040044E-04
          0               117           2           180  154     1      -0.1911440971E-04     243  190    1      -0.8346824382E-04      0.8468858601E-03      0.8594336107E-03     -0.1911440971E-04
          0               118           2           180  154     1      -0.1665944221E-04     243  190    1      -0.8276914366E-04      0.8351971253E-03      0.8468858601E-03     -0.1665944221E-04
                                                   Max.-Head-Change                        Max.-Flux-Residual
  Residual-Control   Outer-Iter.   Inner-Iter.     Column Row Layer    Max.-Head-Change    Column Row Layer    Max.-Flux-Residual            L2-New               L2-Old           Solver-Max-Delh
          0               119           2           180  154     1      -0.1451933502E-04     243  190    1      -0.8203977541E-04      0.8241760117E-03      0.8351971253E-03     -0.1451933502E-04
          0               120           1           180  154     1      -0.1265266295E-04     243  190    1      -0.8128712136E-04      0.8136835020E-03      0.8241760117E-03     -0.1265266295E-04
          0               121           1           180  154     1      -0.1102646352E-04     243  190    1      -0.7088866425E-04      0.7083055046E-03      0.8136835020E-03     -0.1102646352E-04
          0               122           1           180  154     1      -0.9609029165E-05     243  190    1      -0.6200543748E-04      0.6186892285E-03      0.7083055046E-03     -0.9609029165E-05
          0               123           1           180  154     1      -0.8373606841E-05     243  190    1      -0.5441970859E-04      0.5424144979E-03      0.6186892285E-03     -0.8373606841E-05
          0               124           1           180  154     1      -0.7296862267E-05     243  190    1      -0.4794448932E-04      0.4774612944E-03      0.5424144979E-03     -0.7296862267E-05
          0               125           1           180  154     1      -0.6358445056E-05     243  190    1      -0.4241850854E-04      0.4221183213E-03      0.4774612944E-03     -0.6358445056E-05
          0               126           1           180  154     1      -0.5540608703E-05     243  190    1      -0.3770197918E-04      0.3749242773E-03      0.4221183213E-03     -0.5540608703E-05
          0               127           1           180  154     1      -0.4827878601E-05     243  190    1      -0.3367339434E-04      0.3346256613E-03      0.3749242773E-03     -0.4827878601E-05
          0               128           1           180  154     1      -0.4206762156E-05     243  190    1      -0.3022747796E-04      0.3001493111E-03      0.3346256613E-03     -0.4206762156E-05
                                                   Max.-Head-Change                        Max.-Flux-Residual
  Residual-Control   Outer-Iter.   Inner-Iter.     Column Row Layer    Max.-Head-Change    Column Row Layer    Max.-Flux-Residual            L2-New               L2-Old           Solver-Max-Delh
          0               129           1           180  154     1      -0.3665495763E-05     243  190    1      -0.2727404524E-04      0.2705847384E-03      0.3001493111E-03     -0.3665495763E-05
          0               130           1           180  154     1      -0.3193823956E-05     243  190    1      -0.2473707605E-04      0.2451698005E-03      0.2705847384E-03     -0.3193823956E-05
          0               131           1           180  154     1      -0.2782806620E-05     243  190    1      -0.2255340655E-04      0.2232742313E-03      0.2451698005E-03     -0.2782806620E-05
          0               132           1             1  306     1      -0.2425649505E-05     243  190    1      -0.2067090054E-04      0.2043793548E-03      0.2232742313E-03     -0.2425649505E-05
          0               133           1             1  306     1      -0.2147008678E-05     243  190    1      -0.1904642886E-04      0.1880567982E-03      0.2043793548E-03     -0.2147008678E-05
          0               134           1             1  306     1      -0.1900457180E-05     243  190    1      -0.1764400326E-04      0.1739493996E-03      0.1880567982E-03     -0.1900457180E-05
          0               135           1             1  306     1      -0.1682263440E-05     243  190    1      -0.1643326050E-04      0.1617559068E-03      0.1739493996E-03     -0.1682263440E-05
          0               136           1             1  306     1      -0.1489142430E-05     243  190    1      -0.1538832100E-04      0.1512194811E-03      0.1617559068E-03     -0.1489142430E-05
          0               137           1             1  306     1      -0.1318198807E-05     243  190    1      -0.1448694570E-04      0.1421192802E-03      0.1512194811E-03     -0.1318198807E-05
          0               138           1             1  306     1      -0.1166877643E-05     243  190    1      -0.1370991265E-04      0.1342642508E-03      0.1421192802E-03     -0.1166877643E-05
                                                   Max.-Head-Change                        Max.-Flux-Residual
  Residual-Control   Outer-Iter.   Inner-Iter.     Column Row Layer    Max.-Head-Change    Column Row Layer    Max.-Flux-Residual            L2-New               L2-Old           Solver-Max-Delh
          0               139           1             1  306     1      -0.1032922162E-05     243  190    1      -0.1304054774E-04      0.1274884485E-03      0.1342642508E-03     -0.1032922162E-05
          0               140           1             1  306     1      -0.9143374437E-06     243  190    1      -0.1246435284E-04      0.1216473922E-03      0.1274884485E-03     -0.9143374437E-06
          0               141           1             1  306     1      -0.8093590658E-06     243  190    1      -0.1196870824E-04      0.1166151387E-03      0.1216473922E-03     -0.8093590658E-06
          0               142           1             1  306     1      -0.7164258894E-06     243  190    1      -0.1154262645E-04      0.1122818702E-03      0.1166151387E-03     -0.7164258894E-06
          0               143           1             1  306     1      -0.6341562749E-06     243  190    1      -0.1117654188E-04      0.1085518693E-03      0.1122818702E-03     -0.6341562749E-06
          0               144           1             1  306     1      -0.5613272444E-06     243  190    1      -0.1086213274E-04      0.1053417817E-03      0.1085518693E-03     -0.5613272444E-06
          0               145           1             1  306     1      -0.4968561329E-06     243  190    1      -0.1059216822E-04      0.1025791179E-03      0.1053417817E-03     -0.4968561329E-06
          0               146           1             1  306     1      -0.4397844375E-06     243  190    1      -0.1036037031E-04      0.1002009400E-03      0.1025791179E-03     -0.4397844375E-06

    ------------------------------------------------
       NWT REQUIRED          146 OUTER ITERATIONS 
       AND A TOTAL OF       3902 INNER ITERATIONS.
    ------------------------------------------------

 OUTPUT CONTROL FOR STRESS PERIOD    1   TIME STEP    1
    PRINT BUDGET
    SAVE HEAD FOR ALL LAYERS
    SAVE DRAWDOWN FOR ALL LAYERS
    SAVE BUDGET
 UBDSV2 SAVING "   CONSTANT HEAD" ON UNIT  40 AT TIME STEP  1, STRESS PERIOD   1
 UBDSV1 SAVING "FLOW RIGHT FACE " ON UNIT  40 AT TIME STEP  1, STRESS PERIOD   1
 UBDSV1 SAVING "FLOW FRONT FACE " ON UNIT  40 AT TIME STEP  1, STRESS PERIOD   1
 UBDSV3 SAVING "        RECHARGE" ON UNIT  40 AT TIME STEP  1, STRESS PERIOD   1

 SAVING SATURATED THICKNESS AND FLOW TERMS ON UNIT  333 FOR MT3DMS
 BY THE LINK-MT3DMS PACKAGE V7 AT TIME STEP    1, STRESS PERIOD    1


 HEAD WILL BE SAVED ON UNIT    2 AT END OF TIME STEP    1, STRESS PERIOD    1

 DRAWDOWN WILL BE SAVED ON UNIT   12 AT END OF TIME STEP    1, STRESS PERIOD    1
1
  VOLUMETRIC BUDGET FOR ENTIRE MODEL AT END OF TIME STEP    1, STRESS PERIOD   1
  ------------------------------------------------------------------------------

     CUMULATIVE VOLUMES      L**3       RATES FOR THIS TIME STEP      L**3/T
     ------------------                 ------------------------

           IN:                                      IN:
           ---                                      ---
             STORAGE     =           0.0000               STORAGE     =           0.0000
       CONSTANT HEAD     =           0.0000         CONSTANT HEAD     =           0.0000
            RECHARGE     =          23.3723              RECHARGE     =          23.3723

                TOTAL IN =          23.3723                  TOTAL IN =          23.3723

          OUT:                                     OUT:
          ----                                     ----
             STORAGE     =           0.0000               STORAGE     =           0.0000
       CONSTANT HEAD     =          23.3742         CONSTANT HEAD     =          23.3742
            RECHARGE     =           0.0000              RECHARGE     =           0.0000

               TOTAL OUT =          23.3742                 TOTAL OUT =          23.3742

                IN - OUT =      -1.9188E-03                  IN - OUT =      -1.9188E-03

     PERCENT DISCREPANCY =          -0.01         PERCENT DISCREPANCY =          -0.01






         TIME SUMMARY AT END OF TIME STEP    1 IN STRESS PERIOD    1
                    SECONDS     MINUTES      HOURS       DAYS        YEARS
                    -----------------------------------------------------------
   TIME STEP LENGTH  86400.      1440.0      24.000      1.0000     2.73785E-03
 STRESS PERIOD TIME  86400.      1440.0      24.000      1.0000     2.73785E-03
         TOTAL TIME  86400.      1440.0      24.000      1.0000     2.73785E-03
1

 Run end date and time (yyyy/mm/dd hh:mm:ss): 2023/05/24 23:06:47
 Elapsed run time:  1 Minutes,  2.647 Seconds

