                                  MODFLOW-NWT-SWR1 
      U.S. GEOLOGICAL SURVEY MODULAR FINITE-DIFFERENCE GROUNDWATER-FLOW MODEL
                            VERSION 1.2.0 03/01/2020
                    BASED ON MODFLOW-2005 VERSION 1.12.00 02/03/2017

 LIST FILE: CASE5.out
                         UNIT    1

 OPENING CASE5.hed
 FILE TYPE:DATA(BINARY)   UNIT    2   STATUS:UNKNOWN
 FORMAT:BINARY                 ACCESS:SEQUENTIAL          

 OPENING CASE5.drw
 FILE TYPE:DATA(BINARY)   UNIT   12   STATUS:UNKNOWN
 FORMAT:BINARY                 ACCESS:SEQUENTIAL          

 OPENING CASE5.ccf
 FILE TYPE:DATA(BINARY)   UNIT   40   STATUS:UNKNOWN
 FORMAT:BINARY                 ACCESS:SEQUENTIAL          

 OPENING CASE5.lmt6
 FILE TYPE:LMT6   UNIT    3   STATUS:OLD    
 FORMAT:FORMATTED              ACCESS:SEQUENTIAL          

 OPENING CASE5.dis
 FILE TYPE:DIS   UNIT    4   STATUS:OLD    
 FORMAT:FORMATTED              ACCESS:SEQUENTIAL          

 OPENING CASE5.ba6
 FILE TYPE:BAS6   UNIT    7   STATUS:OLD    
 FORMAT:FORMATTED              ACCESS:SEQUENTIAL          

 OPENING CASE5.upw
 FILE TYPE:UPW   UNIT    8   STATUS:OLD    
 FORMAT:FORMATTED              ACCESS:SEQUENTIAL          

 OPENING CASE5.oc
 FILE TYPE:OC   UNIT    9   STATUS:OLD    
 FORMAT:FORMATTED              ACCESS:SEQUENTIAL          

 OPENING CASE5.rch
 FILE TYPE:RCH   UNIT   10   STATUS:OLD    
 FORMAT:FORMATTED              ACCESS:SEQUENTIAL          

 OPENING CASE5.nwt
 FILE TYPE:NWT   UNIT   11   STATUS:OLD    
 FORMAT:FORMATTED              ACCESS:SEQUENTIAL          

 BAS -- BASIC PACKAGE, VERSION 1.2.0, 3/01/2020 INPUT READ FROM UNIT    7
 
 MODFLOW was compiled using mixed precision
 Precision of REAL variables:           6
 Precision of DOUBLE PRECISION variables:          15

 DISCRETIZATION INPUT DATA READ FROM UNIT    4
 # MF2K DISCRETIZATION FILE
 #
 #
 # NLAY NROW NCOL NPER TIMEUNITS LENUNITS
    1 LAYERS       400 ROWS       400 COLUMNS
    1 STRESS PERIOD(S) IN SIMULATION
 MODEL TIME UNIT IS DAYS
 MODEL LENGTH UNIT IS METERS
  Confining bed flag for each layer:
   0

                     DELR =   20.0000    

                     DELC =   20.0000    

 TOP ELEVATION OF LAYER 1 =   200.000    



             MODEL LAYER BOTTOM EL. FOR LAYER   1
 READING ON UNIT    4 WITH FORMAT: (FREE)              


 STRESS PERIOD     LENGTH       TIME STEPS     MULTIPLIER FOR DELT    SS FLAG
 ----------------------------------------------------------------------------
        1         1.000000          1                    1.000         SS

 STEADY-STATE SIMULATION



 
 THE FREE FORMAT OPTION HAS BEEN SELECTED



                     BOUNDARY ARRAY FOR LAYER   1
 READING ON UNIT    7 WITH FORMAT: (FREE)              

 AQUIFER HEAD WILL BE SET TO  -999.00     AT ALL NO-FLOW NODES (IBOUND=0).



                       INITIAL HEAD FOR LAYER   1
 READING ON UNIT    7 WITH FORMAT: (FREE)              

 OUTPUT CONTROL IS SPECIFIED ONLY AT TIME STEPS FOR WHICH OUTPUT IS DESIRED
 COMPACT CELL-BY-CELL BUDGET FILES WILL BE WRITTEN
 AUXILIARY DATA WILL BE SAVED IN CELL-BY-CELL BUDGET FILES
 HEAD PRINT FORMAT CODE IS   0    DRAWDOWN PRINT FORMAT CODE IS   0
 HEADS WILL BE SAVED ON UNIT    2    DRAWDOWNS WILL BE SAVED ON UNIT   12
 #

 NWT1 -- Newton Solver, VERSION 1.2.0, 3/01/2020
         INPUT READ FROM UNIT 11

 COMPLEX OPTION:
 DEFAULT SOLVER INPUT VALUES REFLECT STRONGLY NONLINEAR MODEL
 ***XMD linear solver will be used***
 
   CONVERGENCE CRITERION OF   0.100000E-03 FOR HEAD SOLUTION
   AND A TOLERANCE OF   0.100000E-03 FOR FLOW SOLUTION AND 
   A MAXIMUM OF 10000 OUTER ITERATIONS. 


   D-B-D REDUCTION FACTOR OF    0.850000E+00 AND 
   A D-B-D INCREASE FACTOR OF    0.100000E-04 AND 
   A D-B-D RELAXATION OF    0.000000E+00 AND 
   A MOMENTUM FACTOR OF    0.100000E+00 .


   BACKTRACKING IS ACTIVE 
   THE MAXIMUM NUMBER OF BACKTRACKS IS    50 AND 
   THE BACKTRACKING TOLERANCE IS    0.110000E+01 AND
   THE BACKTRACKING REDUCTION FACTOR IS    0.700000E+00

 XMD -- LINEAR SOLUTION BY XMD PACKAGE VERSION 1.30
     BY MOTOMU IBARAKI, OHIO STATE UNIVERSITY, COLOMBUS, OH
                 INPUT READ FROM UNIT 11
 ACCELERATION METHOD                    (IACL) =         2
 NODE ORDERING FLAG                   (NORDER) =         0
 LEVEL OF FILL                         (LEVEL) =        15
 MAXIMUM NUMBER OF ORTHOGONALIZATIONS  (NORTH) =         1
 INDEX FOR USING REDUCED SYSTEM      (IREDSYS) =         1
 RESID. REDUCTION CONVERGE CRITERION  (RRCTOL) =  0.000000E+00
 INDEX FOR USING DROP TOLERANCE     (IDROPTOL) =         1
 DROP TOLERANCE VALUE                  (EPSRN) =  0.100000E-02
 CONVERGENCE CRITERIA OF           (HCLOSEXMD) =  0.100000E-03
 MAX. NUMBER OF LINEAR ITERATIONS  (MXITERXMD) =       200


 UPW1 -- UPSTREAM WEIGHTING FLOW PACKAGE, VERSION 1.2.0, 3/01/2020
         INPUT READ FROM UNIT  8

 CELL-BY-CELL FLOWS WILL BE SAVED ON UNIT   40
 No named parameters

   LAYER FLAGS:
 LAYER       LAYTYP          LAYAVG    CHANI           LAYVKA           LAYWET
 ---------------------------------------------------------------------------
    1             1             0    -1.000E+00             1             0

   INTERPRETATION OF LAYER FLAGS:
                        INTERBLOCK     HORIZONTAL    DATA IN
         LAYER TYPE   TRANSMISSIVITY   ANISOTROPY   ARRAY VKA   WETTABILITY
 LAYER   (LAYTYP)        (LAYAVG)      (CHANI)     (LAYVKA)       (LAYWET)
 ---------------------------------------------------------------------------
    1   CONVERTIBLE      HARMONIC      VARIABLE    ANISOTROPY  NON-WETTABLE

    HYD. COND. ALONG ROWS =   1.00000     FOR LAYER   1

   HORIZ. ANI. (COL./ROW) =   1.00000     FOR LAYER   1

  HORIZ. TO VERTICAL ANI. =   3.00000     FOR LAYER   1

 RCH -- RECHARGE PACKAGE, VERSION 7, 5/2/2005 INPUT READ FROM UNIT   10
 #
 No named parameters
 OPTION 3 -- RECHARGE TO HIGHEST ACTIVE NODE IN EACH VERTICAL COLUMN
 CELL-BY-CELL FLOWS WILL BE SAVED ON UNIT   40


     0 Recharge parameters

 WARNING READING LMT PACKAGE INPUT DATA:
 [STANDARD] HEADER NO LONGER SUPPORTED; [EXTENDED] HEADER USED INSTEAD.


 ***Link-MT3DMS Package v7***
 OPENING LINK-MT3DMS OUTPUT FILE: CASE5.hff                                                                                                                                                                                               
 ON UNIT NUMBER:   333
 FILE TYPE: UNFORMATTED
 HEADER OPTION: EXTENDED
 ***Link-MT3DMS Package v7***

1
                            STRESS PERIOD NO.    1, LENGTH =   1.000000    
                            -----------------------------------------------

                              NUMBER OF TIME STEPS =     1

                               MULTIPLIER FOR DELT =     1.000

                            INITIAL TIME STEP SIZE =   1.000000    



                           RECHARGE
 READING ON UNIT   10 WITH FORMAT: (FREE)              
 
 SOLVING FOR HEAD 
                                                   Max.-Head-Change                        Max.-Flux-Residual
  Residual-Control   Outer-Iter.   Inner-Iter.     Column Row Layer    Max.-Head-Change    Column Row Layer    Max.-Flux-Residual            L2-New               L2-Old           Solver-Max-Delh
          0                 1          77           354  387     1      -0.1999945472E+02     395  175    1      -0.1679238804E+02      0.1183752107E+03      0.0000000000E+00     -0.1999945472E+02
          1                 1           0           354  387     1      -0.1399961807E+02     389  377    1       0.2044355143E+03      0.1952264155E+04      0.1183752107E+03     -0.1999945472E+02
          2                 1           0           354  387     1      -0.9799732479E+01       1  180    1      -0.1518921422E+02      0.1424910342E+03      0.1952264155E+04     -0.1999945472E+02
          0                 2          69           399   15     1      -0.1147704554E+02       3  174    1      -0.1085202287E+03      0.1038056399E+04      0.1424910342E+03     -0.1147704554E+02
          1                 2           0           399   15     1      -0.8033931739E+01     399   15    1       0.6844977999E+02      0.1392262093E+04      0.1038056399E+04     -0.1147704554E+02
          0                 3          75           344  395     1       0.2112037267E+05     337  397    1      -0.2179697270E+02      0.2233506695E+03      0.1392262093E+04      0.2112037267E+05
          1                 3           0           344  395     1       0.1478426062E+05     344  395    1      -0.6695589474E+07      0.1423685049E+08      0.2233506695E+03      0.2112037267E+05
          2                 3           0           344  395     1       0.1034898225E+05     344  395    1      -0.4686912437E+07      0.9965739002E+07      0.1423685049E+08      0.2112037267E+05
          3                 3           0           344  395     1       0.7244287455E+04     344  395    1      -0.3280838535E+07      0.6976177232E+07      0.9965739002E+07      0.2112037267E+05
          4                 3           0           344  395     1       0.5071001132E+04     344  395    1      -0.2296586821E+07      0.4883173189E+07      0.6976177232E+07      0.2112037267E+05
                                                   Max.-Head-Change                        Max.-Flux-Residual
  Residual-Control   Outer-Iter.   Inner-Iter.     Column Row Layer    Max.-Head-Change    Column Row Layer    Max.-Flux-Residual            L2-New               L2-Old           Solver-Max-Delh
          5                 3           0           344  395     1       0.3549700732E+04     344  395    1      -0.1607610632E+07      0.3418842434E+07      0.4883173189E+07      0.2112037267E+05
          6                 3           0           344  395     1       0.2484790470E+04     344  395    1      -0.1125327308E+07      0.2392938896E+07      0.3418842434E+07      0.2112037267E+05
          7                 3           0           344  395     1       0.1739353299E+04     344  395    1      -0.7877289876E+06      0.1675415157E+07      0.2392938896E+07      0.2112037267E+05
          8                 3           0           344  395     1       0.1217547289E+04     344  395    1      -0.5514101670E+06      0.1174344328E+07      0.1675415157E+07      0.2112037267E+05
          9                 3           0           344  395     1       0.8522830877E+03     344  395    1      -0.3859869954E+06      0.8214404303E+06      0.1174344328E+07      0.2112037267E+05
         10                 3           0           344  395     1       0.5965981512E+03     344  395    1      -0.2701907773E+06      0.5737962270E+06      0.8214404303E+06      0.2112037267E+05
         11                 3           0           344  395     1       0.4176186987E+03     344  395    1      -0.1891334260E+06      0.3991780202E+06      0.5737962270E+06      0.2112037267E+05
         12                 3           0           344  395     1       0.2923330841E+03     344  395    1      -0.1323932810E+06      0.2734612151E+06      0.3991780202E+06      0.2112037267E+05
         13                 3           0           344  395     1       0.2046331554E+03     344  395    1      -0.9267518023E+05      0.1842842613E+06      0.2734612151E+06      0.2112037267E+05
         14                 3           0           344  395     1       0.1432432063E+03     344  395    1      -0.6487251014E+05      0.1185621810E+06      0.1842842613E+06      0.2112037267E+05
                                                   Max.-Head-Change                        Max.-Flux-Residual
  Residual-Control   Outer-Iter.   Inner-Iter.     Column Row Layer    Max.-Head-Change    Column Row Layer    Max.-Flux-Residual            L2-New               L2-Old           Solver-Max-Delh
         15                 3           0           344  395     1       0.1002702427E+03     344  395    1      -0.4541064142E+05      0.7017803844E+05      0.1185621810E+06      0.2112037267E+05
         16                 3           0           344  395     1       0.7018916872E+02     344  395    1      -0.2508268820E+05      0.3682144491E+05      0.7017803844E+05      0.2112037267E+05
         17                 3           0           344  395     1       0.4913241727E+02     344  395    1      -0.1229041909E+05      0.1808346646E+05      0.3682144491E+05      0.2112037267E+05
         18                 3           0           344  395     1       0.3439269150E+02     344  395    1      -0.6022236364E+04      0.8939623291E+04      0.1808346646E+05      0.2112037267E+05
         19                 3           0           344  395     1       0.2407488364E+02     344  395    1      -0.2950847184E+04      0.4532913004E+04      0.8939623291E+04      0.2112037267E+05
         20                 3           0           344  395     1       0.1685241826E+02     344  395    1      -0.1445880712E+04      0.2504214227E+04      0.4532913004E+04      0.2112037267E+05
         21                 3           0           344  395     1       0.1179669258E+02     344  395    1      -0.7084570892E+03      0.1683059959E+04      0.2504214227E+04      0.2112037267E+05
         22                 3           0           344  395     1       0.8257684667E+01     344  395    1      -0.3471264721E+03      0.1414925931E+04      0.1683059959E+04      0.2112037267E+05
         23                 3           0           344  395     1       0.5780379168E+01     344  395    1      -0.1700793379E+03      0.1341720123E+04      0.1414925931E+04      0.2112037267E+05
         24                 3           0           344  395     1       0.4046265349E+01     344  395    1      -0.8332964856E+02      0.1323151719E+04      0.1341720123E+04      0.2112037267E+05
                                                   Max.-Head-Change                        Max.-Flux-Residual
  Residual-Control   Outer-Iter.   Inner-Iter.     Column Row Layer    Max.-Head-Change    Column Row Layer    Max.-Flux-Residual            L2-New               L2-Old           Solver-Max-Delh
         25                 3           0           344  395     1       0.2832385696E+01     359  279    1      -0.6315321743E+02      0.1318499673E+04      0.1323151719E+04      0.2112037267E+05
         26                 3           0           344  395     1       0.1982669953E+01     359  279    1      -0.6316045079E+02      0.1317330870E+04      0.1318499673E+04      0.2112037267E+05
         27                 3           0           344  395     1       0.1387868944E+01     359  279    1      -0.6316551439E+02      0.1317044773E+04      0.1317330870E+04      0.2112037267E+05
         28                 3           0           344  395     1       0.9715082441E+00     359  279    1      -0.6316905903E+02      0.1316986823E+04      0.1317044773E+04      0.2112037267E+05
          0                 4         124           333  302     1       0.1178539309E+05     359  279    1      -0.6317154034E+02      0.1316987575E+04      0.1316986823E+04      0.1178539309E+05
          1                 4           0           333  302     1       0.8249775022E+04     333  304    1      -0.2957556799E+07      0.2726978519E+08      0.1316987575E+04      0.1178539309E+05
          2                 4           0           333  302     1       0.5774842417E+04     333  304    1      -0.2070116864E+07      0.1908594308E+08      0.2726978519E+08      0.1178539309E+05
          3                 4           0           333  302     1       0.4042389623E+04     333  304    1      -0.1448908920E+07      0.1335722856E+08      0.1908594308E+08      0.1178539309E+05
          4                 4           0           333  302     1       0.2829672688E+04     333  304    1      -0.1014063367E+07      0.9346777234E+07      0.1335722856E+08      0.1178539309E+05
          5                 4           0           333  302     1       0.1980770848E+04     333  304    1      -0.7096714850E+06      0.6539633500E+07      0.9346777234E+07      0.1178539309E+05
                                                   Max.-Head-Change                        Max.-Flux-Residual
  Residual-Control   Outer-Iter.   Inner-Iter.     Column Row Layer    Max.-Head-Change    Column Row Layer    Max.-Flux-Residual            L2-New               L2-Old           Solver-Max-Delh
          6                 4           0           333  302     1       0.1386539570E+04     333  304    1      -0.4965971712E+06      0.4573266642E+07      0.6539633500E+07      0.1178539309E+05
          7                 4           0           333  302     1       0.9705776824E+03     333  304    1      -0.3474451540E+06      0.3192133160E+07      0.4573266642E+07      0.1178539309E+05
          8                 4           0           333  302     1       0.6794043661E+03     333  304    1      -0.2430387438E+06      0.2206678419E+07      0.3192133160E+07      0.1178539309E+05
          9                 4           0           333  302     1       0.4755830482E+03     333  304    1      -0.1699542579E+06      0.1499455820E+07      0.2206678419E+07      0.1178539309E+05
         10                 4           0           333  302     1       0.3329081280E+03     333  304    1      -0.1187951187E+06      0.9983770089E+06      0.1499455820E+07      0.1178539309E+05
         11                 4           0           333  302     1       0.2330356857E+03     333  304    1      -0.8298372182E+05      0.6303752688E+06      0.9983770089E+06      0.1178539309E+05
         12                 4           0           333  302     1       0.1631249772E+03     333  304    1      -0.5791574443E+05      0.3699769083E+06      0.6303752688E+06      0.1178539309E+05
         13                 4           0           333  302     1       0.1141874821E+03     333  304    1      -0.4036816056E+05      0.2012339555E+06      0.3699769083E+06      0.1178539309E+05
         14                 4           0           333  302     1       0.7993123610E+02     333  304    1      -0.2065017538E+05      0.9881915372E+05      0.2012339555E+06      0.1178539309E+05
         15                 4           0           333  302     1       0.5595186432E+02     333  304    1      -0.1002958570E+05      0.4782077613E+05      0.9881915372E+05      0.1178539309E+05
                                                   Max.-Head-Change                        Max.-Flux-Residual
  Residual-Control   Outer-Iter.   Inner-Iter.     Column Row Layer    Max.-Head-Change    Column Row Layer    Max.-Flux-Residual            L2-New               L2-Old           Solver-Max-Delh
         16                 4           0           333  302     1       0.3916630435E+02     333  304    1      -0.4852197080E+04      0.2307182066E+05      0.4782077613E+05      0.1178539309E+05
         17                 4           0           333  302     1       0.2741641258E+02     333  304    1      -0.2333966840E+04      0.1113226955E+05      0.2307182066E+05      0.1178539309E+05
         18                 4           0           333  302     1       0.1919148848E+02     333  304    1      -0.1113117133E+04      0.5453286754E+04      0.1113226955E+05      0.1178539309E+05
         19                 4           0           333  302     1       0.1343404171E+02     333  304    1      -0.5240589457E+03      0.2861699999E+04      0.5453286754E+04      0.1178539309E+05
         20                 4           0           333  302     1       0.9403829035E+01     333  304    1      -0.2418311470E+03      0.1809319043E+04      0.2861699999E+04      0.1178539309E+05
         21                 4           0           333  302     1       0.6582680212E+01     400  307    1       0.1107063288E+03      0.1462150964E+04      0.1809319043E+04      0.1178539309E+05
          0                 5          68           264  368     1       0.5376090926E+03     379  302    1       0.8128027255E+02      0.1365920132E+04      0.1462150964E+04      0.5376090926E+03
          1                 5           0           264  368     1       0.3763263584E+03     264  368    1      -0.1670517325E+06      0.1335796719E+07      0.1365920132E+04      0.5376090926E+03
          2                 5           0           264  368     1       0.2634284464E+03     264  368    1      -0.1169362319E+06      0.9318898405E+06      0.1335796719E+07      0.5376090926E+03
          3                 5           0           264  368     1       0.1843999093E+03     264  368    1      -0.8185538207E+05      0.6472706340E+06      0.9318898405E+06      0.5376090926E+03
                                                   Max.-Head-Change                        Max.-Flux-Residual
  Residual-Control   Outer-Iter.   Inner-Iter.     Column Row Layer    Max.-Head-Change    Column Row Layer    Max.-Flux-Residual            L2-New               L2-Old           Solver-Max-Delh
          4                 5           0           264  368     1       0.1290799343E+03     264  368    1      -0.5729878760E+05      0.4409938468E+06      0.6472706340E+06      0.5376090926E+03
          5                 5           0           264  368     1       0.9035595250E+02     264  368    1      -0.3682065670E+05      0.2410723372E+06      0.4409938468E+06      0.5376090926E+03
          6                 5           0           264  368     1       0.6324916567E+02     264  368    1      -0.1804209200E+05      0.1181590753E+06      0.2410723372E+06      0.5376090926E+03
          7                 5           0           264  368     1       0.4427441522E+02     264  368    1      -0.8840604064E+04      0.5792827922E+05      0.1181590753E+06      0.5376090926E+03
          8                 5           0           264  368     1       0.3099209012E+02     264  368    1      -0.4331881040E+04      0.2842090631E+05      0.5792827922E+05      0.5376090926E+03
          9                 5           0           264  368     1       0.2169446272E+02     264  368    1      -0.2122610972E+04      0.1398328903E+05      0.2842090631E+05      0.5376090926E+03
         10                 5           0           264  368     1       0.1518612364E+02     264  368    1      -0.1040071573E+04      0.6958311208E+04      0.1398328903E+05      0.5376090926E+03
         11                 5           0           264  368     1       0.1063028637E+02     264  368    1      -0.5096293138E+03      0.3616554616E+04      0.6958311208E+04      0.5376090926E+03
         12                 5           0           264  368     1       0.7441200332E+01     264  368    1      -0.2497140351E+03      0.2146342012E+04      0.3616554616E+04      0.5376090926E+03
         13                 5           0           264  368     1       0.5208840144E+01     264  368    1      -0.1223565467E+03      0.1609049246E+04      0.2146342012E+04      0.5376090926E+03
                                                   Max.-Head-Change                        Max.-Flux-Residual
  Residual-Control   Outer-Iter.   Inner-Iter.     Column Row Layer    Max.-Head-Change    Column Row Layer    Max.-Flux-Residual            L2-New               L2-Old           Solver-Max-Delh
          0                 6          82            14   77     1       0.3582794227E+05     379  302    1       0.7986862048E+02      0.1455673098E+04      0.1609049246E+04      0.3582794227E+05
          1                 6           0            14   77     1       0.2507955916E+05      14   77    1      -0.1422869858E+08      0.4232698619E+08      0.1455673098E+04      0.3582794227E+05
          2                 6           0            14   77     1       0.1755569112E+05      14   77    1      -0.9960088926E+07      0.2962930821E+08      0.4232698619E+08      0.3582794227E+05
          3                 6           0            14   77     1       0.1228898357E+05      14   77    1      -0.6972062221E+07      0.2073934894E+08      0.2962930821E+08      0.3582794227E+05
          4                 6           0            14   77     1       0.8602288354E+04      14   77    1      -0.4880443563E+07      0.1451467723E+08      0.2073934894E+08      0.3582794227E+05
          5                 6           0            14   77     1       0.6021601745E+04      14   77    1      -0.3416310528E+07      0.1015649785E+08      0.1451467723E+08      0.3582794227E+05
          6                 6           0            14   77     1       0.4215121150E+04      14   77    1      -0.2391417420E+07      0.7105242104E+07      0.1015649785E+08      0.3582794227E+05
          7                 6           0            14   77     1       0.2950584755E+04      14   77    1      -0.1673992257E+07      0.4968750401E+07      0.7105242104E+07      0.3582794227E+05
          8                 6           0            14   77     1       0.2065409293E+04      14   77    1      -0.1171794651E+07      0.3473655400E+07      0.4968750401E+07      0.3582794227E+05
          9                 6           0            14   77     1       0.1445786480E+04      14   77    1      -0.8202563335E+06      0.2428755477E+07      0.3473655400E+07      0.3582794227E+05
                                                   Max.-Head-Change                        Max.-Flux-Residual
  Residual-Control   Outer-Iter.   Inner-Iter.     Column Row Layer    Max.-Head-Change    Column Row Layer    Max.-Flux-Residual            L2-New               L2-Old           Solver-Max-Delh
         10                 6           0            14   77     1       0.1012050519E+04      14   77    1      -0.5741795151E+06      0.1697641451E+07      0.2428755477E+07      0.3582794227E+05
         11                 6           0            14   77     1       0.7084353513E+03      14   77    1      -0.4019257452E+06      0.1183995382E+07      0.1697641451E+07      0.3582794227E+05
         12                 6           0            14   77     1       0.4959047375E+03      14   77    1      -0.2813481083E+06      0.8243933396E+06      0.1183995382E+07      0.3582794227E+05
         13                 6           0            14   77     1       0.3471333103E+03      14   77    1      -0.1969437639E+06      0.5681254762E+06      0.8243933396E+06      0.3582794227E+05
         14                 6           0            14   77     1       0.2429933131E+03      14   77    1      -0.1378607239E+06      0.3836596051E+06      0.5681254762E+06      0.3582794227E+05
         15                 6           0            14   77     1       0.1700953163E+03      14   77    1      -0.9650259654E+05      0.2487895185E+06      0.3836596051E+06      0.3582794227E+05
         16                 6           0            14   77     1       0.1190667194E+03      14   77    1      -0.6755190790E+05      0.1417142237E+06      0.2487895185E+06      0.3582794227E+05
         17                 6           0            14   77     1       0.8334670213E+02      14   77    1      -0.4182672407E+05      0.7502456031E+05      0.1417142237E+06      0.3582794227E+05
         18                 6           0            14   77     1       0.5834269050E+02      14   77    1      -0.2049510036E+05      0.3678697015E+05      0.7502456031E+05      0.3582794227E+05
         19                 6           0            14   77     1       0.4083988265E+02      14   77    1      -0.1004260288E+05      0.1807569593E+05      0.3678697015E+05      0.3582794227E+05
                                                   Max.-Head-Change                        Max.-Flux-Residual
  Residual-Control   Outer-Iter.   Inner-Iter.     Column Row Layer    Max.-Head-Change    Column Row Layer    Max.-Flux-Residual            L2-New               L2-Old           Solver-Max-Delh
         20                 6           0            14   77     1       0.2858791737E+02      14   77    1      -0.4920877739E+04      0.8955670452E+04      0.1807569593E+05      0.3582794227E+05
         21                 6           0            14   77     1       0.2001154182E+02      14   77    1      -0.2411231416E+04      0.4579734300E+04      0.8955670452E+04      0.3582794227E+05
         22                 6           0            14   77     1       0.1400807903E+02      14   77    1      -0.1181503999E+04      0.2594030409E+04      0.4579734300E+04      0.3582794227E+05
         23                 6           0            14   77     1       0.9805655157E+01      14   77    1      -0.5789370524E+03      0.1815339614E+04      0.2594030409E+04      0.3582794227E+05
          0                 7          70            39  131     1       0.1488924840E+04      14   77    1      -0.2836788857E+03      0.1569699142E+04      0.1815339614E+04      0.1488924840E+04
          1                 7           0            39  131     1       0.1042247370E+04      37  191    1      -0.6144364188E+06      0.1918188726E+07      0.1569699142E+04      0.1488924840E+04
          2                 7           0            39  131     1       0.7295731468E+03      37  191    1      -0.4301043623E+06      0.1318805605E+07      0.1918188726E+07      0.1488924840E+04
          3                 7           0            39  131     1       0.5107011940E+03      37  191    1      -0.3010719250E+06      0.9029435715E+06      0.1318805605E+07      0.1488924840E+04
          4                 7           0            39  131     1       0.3574908297E+03      37  191    1      -0.2107492204E+06      0.6131249184E+06      0.9029435715E+06      0.1488924840E+04
          5                 7           0            39  131     1       0.2502435766E+03      37  191    1      -0.1475233282E+06      0.4089323281E+06      0.6131249184E+06      0.1488924840E+04
                                                   Max.-Head-Change                        Max.-Flux-Residual
  Residual-Control   Outer-Iter.   Inner-Iter.     Column Row Layer    Max.-Head-Change    Column Row Layer    Max.-Flux-Residual            L2-New               L2-Old           Solver-Max-Delh
          6                 7           0            39  131     1       0.1751705006E+03      37  191    1      -0.1032652045E+06      0.2524860527E+06      0.4089323281E+06      0.1488924840E+04
          7                 7           0            39  131     1       0.1226193483E+03      37  191    1      -0.7228451836E+05      0.1497065225E+06      0.2524860527E+06      0.1488924840E+04
          8                 7           0            39  131     1       0.8583354237E+02      37  191    1      -0.4015263291E+05      0.8288992214E+05      0.1497065225E+06      0.1488924840E+04
          9                 7           0            39  131     1       0.6008347864E+02      37  191    1      -0.1967411147E+05      0.4066179340E+05      0.8288992214E+05      0.1488924840E+04
         10                 7           0            39  131     1       0.4205843433E+02      37  191    1      -0.9639839378E+04      0.1999270855E+05      0.4066179340E+05      0.1488924840E+04
         11                 7           0            39  131     1       0.2944090353E+02      37  191    1      -0.4723188365E+04      0.9911199621E+04      0.1999270855E+05      0.1488924840E+04
         12                 7           0            39  131     1       0.2060863212E+02      37  191    1      -0.2314128953E+04      0.5062312857E+04      0.9911199621E+04      0.1488924840E+04
         13                 7           0            39  131     1       0.1442604224E+02      37  191    1      -0.1133759533E+04      0.2844903531E+04      0.5062312857E+04      0.1488924840E+04
         14                 7           0            39  131     1       0.1009822939E+02      37  191    1      -0.5554272929E+03      0.1959370990E+04      0.2844903531E+04      0.1488924840E+04
          0                 8          72           365  288     1       0.3774045850E+04      14   77    1      -0.2847869264E+03      0.1673105729E+04      0.1959370990E+04      0.3774045850E+04
                                                   Max.-Head-Change                        Max.-Flux-Residual
  Residual-Control   Outer-Iter.   Inner-Iter.     Column Row Layer    Max.-Head-Change    Column Row Layer    Max.-Flux-Residual            L2-New               L2-Old           Solver-Max-Delh
          1                 8           0           365  288     1       0.2641832050E+04     365  288    1      -0.1796899964E+07      0.4050630078E+07      0.1673105729E+04      0.3774045850E+04
          2                 8           0           365  288     1       0.1849282404E+04     365  288    1      -0.1257829684E+07      0.2821678595E+07      0.4050630078E+07      0.3774045850E+04
          3                 8           0           365  288     1       0.1294497660E+04     365  288    1      -0.8804804947E+06      0.1961758305E+07      0.2821678595E+07      0.3774045850E+04
          4                 8           0           365  288     1       0.9061483469E+03     365  288    1      -0.6163360665E+06      0.1357371566E+07      0.1961758305E+07      0.3774045850E+04
          5                 8           0           365  288     1       0.6343038320E+03     365  288    1      -0.4314349699E+06      0.9330813692E+06      0.1357371566E+07      0.3774045850E+04
          6                 8           0           365  288     1       0.4440126748E+03     365  288    1      -0.3020042045E+06      0.6309178564E+06      0.9330813692E+06      0.3774045850E+04
          7                 8           0           365  288     1       0.3108088671E+03     365  288    1      -0.2114026703E+06      0.4095915277E+06      0.6309178564E+06      0.3774045850E+04
          8                 8           0           365  288     1       0.2175662033E+03     365  288    1      -0.1479815974E+06      0.2658752509E+06      0.4095915277E+06      0.3774045850E+04
          9                 8           0           365  288     1       0.1522963397E+03     365  288    1      -0.1035868471E+06      0.1649280339E+06      0.2658752509E+06      0.3774045850E+04
         10                 8           0           365  288     1       0.1066074360E+03     365  288    1      -0.6916379954E+05      0.9745036618E+05      0.1649280339E+06      0.3774045850E+04
                                                   Max.-Head-Change                        Max.-Flux-Residual
  Residual-Control   Outer-Iter.   Inner-Iter.     Column Row Layer    Max.-Head-Change    Column Row Layer    Max.-Flux-Residual            L2-New               L2-Old           Solver-Max-Delh
         11                 8           0           365  288     1       0.7462520391E+02     365  288    1      -0.3389000431E+05      0.4778373607E+05      0.9745036618E+05      0.3774045850E+04
         12                 8           0           365  288     1       0.5223764185E+02     365  288    1      -0.1660592194E+05      0.2347131624E+05      0.4778373607E+05      0.3774045850E+04
         13                 8           0           365  288     1       0.3656634867E+02     365  288    1      -0.8136775565E+04      0.1160540548E+05      0.2347131624E+05      0.3774045850E+04
         14                 8           0           365  288     1       0.2559644363E+02     365  288    1      -0.3986931570E+04      0.5882774791E+04      0.1160540548E+05      0.3774045850E+04
         15                 8           0           365  288     1       0.1791751024E+02     365  288    1      -0.1953534393E+04      0.3241191329E+04      0.5882774791E+04      0.3774045850E+04
         16                 8           0           365  288     1       0.1254225695E+02     365  288    1      -0.9571882285E+03      0.2164118288E+04      0.3241191329E+04      0.3774045850E+04
          0                 9          68            38  175     1       0.3031300964E+04     365  288    1      -0.4689915168E+03      0.1808167134E+04      0.2164118288E+04      0.3031300964E+04
          1                 9           0            38  175     1       0.2121910639E+04      38  175    1      -0.1080920408E+07      0.2091750490E+07      0.1808167134E+04      0.3031300964E+04
          2                 9           0            38  175     1       0.1485337422E+04      38  175    1      -0.7566443239E+06      0.1444898391E+07      0.2091750490E+07      0.3031300964E+04
          3                 9           0            38  175     1       0.1039736178E+04      38  175    1      -0.5296510692E+06      0.9770657527E+06      0.1444898391E+07      0.3031300964E+04
                                                   Max.-Head-Change                        Max.-Flux-Residual
  Residual-Control   Outer-Iter.   Inner-Iter.     Column Row Layer    Max.-Head-Change    Column Row Layer    Max.-Flux-Residual            L2-New               L2-Old           Solver-Max-Delh
          4                 9           0            38  175     1       0.7278153119E+03      38  175    1      -0.3707557936E+06      0.6534407472E+06      0.9770657527E+06      0.3031300964E+04
          5                 9           0            38  175     1       0.5094707097E+03      38  175    1      -0.2595291026E+06      0.4424656527E+06      0.6534407472E+06      0.3031300964E+04
          6                 9           0            38  175     1       0.3566294907E+03      38  175    1      -0.1816704202E+06      0.2968162283E+06      0.4424656527E+06      0.3031300964E+04
          7                 9           0            38  175     1       0.2496406392E+03      38  175    1      -0.1271693435E+06      0.1955410549E+06      0.2968162283E+06      0.3031300964E+04
          8                 9           0            38  175     1       0.1747484445E+03      38  175    1      -0.8901859045E+05      0.1306209760E+06      0.1955410549E+06      0.3031300964E+04
          9                 9           0            38  175     1       0.1223239091E+03      38  175    1      -0.6231306375E+05      0.8610773577E+05      0.1306209760E+06      0.3031300964E+04
         10                 9           0            38  175     1       0.8562673489E+02      38  175    1      -0.3922417974E+05      0.5026257456E+05      0.8610773577E+05      0.3031300964E+04
         11                 9           0            38  175     1       0.5993871340E+02      38  175    1      -0.1921983334E+05      0.2469247687E+05      0.5026257456E+05      0.3031300964E+04
         12                 9           0            38  175     1       0.4195709866E+02      38  175    1      -0.9417707835E+04      0.1221290143E+05      0.2469247687E+05      0.3031300964E+04
         13                 9           0            38  175     1       0.2936996857E+02      38  175    1      -0.4614669224E+04      0.6197888041E+04      0.1221290143E+05      0.3031300964E+04
                                                   Max.-Head-Change                        Max.-Flux-Residual
  Residual-Control   Outer-Iter.   Inner-Iter.     Column Row Layer    Max.-Head-Change    Column Row Layer    Max.-Flux-Residual            L2-New               L2-Old           Solver-Max-Delh
         14                 9           0            38  175     1       0.2055897765E+02      38  175    1      -0.2261182291E+04      0.3429262736E+04      0.6197888041E+04      0.3031300964E+04
         15                 9           0            38  175     1       0.1439128411E+02      38  175    1      -0.1107975069E+04      0.2309796497E+04      0.3429262736E+04      0.3031300964E+04
          0                10          76             3   64     1       0.3929342413E+04      38  175    1      -0.5429044833E+03      0.1945314703E+04      0.2309796497E+04      0.3929342413E+04
          1                10           0             3   64     1       0.2750539642E+04       3   64    1      -0.1623071160E+07      0.3305204934E+07      0.1945314703E+04      0.3929342413E+04
          2                10           0             3   64     1       0.1925377717E+04       3   64    1      -0.1136150073E+07      0.2298062826E+07      0.3305204934E+07      0.3929342413E+04
          3                10           0             3   64     1       0.1347764379E+04       3   64    1      -0.7953053174E+06      0.1592319402E+07      0.2298062826E+07      0.3929342413E+04
          4                10           0             3   64     1       0.9434350490E+03       3   64    1      -0.5567139929E+06      0.1093096026E+07      0.1592319402E+07      0.3929342413E+04
          5                10           0             3   64     1       0.6604045230E+03       3   64    1      -0.3897000685E+06      0.7274375709E+06      0.1093096026E+07      0.3929342413E+04
          6                10           0             3   64     1       0.4622831583E+03       3   64    1      -0.2727903235E+06      0.4738577190E+06      0.7274375709E+06      0.3929342413E+04
          7                10           0             3   64     1       0.3235982053E+03       3   64    1      -0.1909535033E+06      0.3016744903E+06      0.4738577190E+06      0.3929342413E+04
                                                   Max.-Head-Change                        Max.-Flux-Residual
  Residual-Control   Outer-Iter.   Inner-Iter.     Column Row Layer    Max.-Head-Change    Column Row Layer    Max.-Flux-Residual            L2-New               L2-Old           Solver-Max-Delh
          8                10           0             3   64     1       0.2265187398E+03       3   64    1      -0.1336677302E+06      0.1860341334E+06      0.3016744903E+06      0.3929342413E+04
          9                10           0             3   64     1       0.1585631152E+03       3   64    1      -0.9356768969E+05      0.1188898231E+06      0.1860341334E+06      0.3929342413E+04
         10                10           0             3   64     1       0.1109941787E+03       3   64    1      -0.6549766181E+05      0.7803003400E+05      0.1188898231E+06      0.3929342413E+04
         11                10           0             3   64     1       0.7769592379E+02       3   64    1      -0.3757582316E+05      0.4402803325E+05      0.7803003400E+05      0.3929342413E+04
         12                10           0             3   64     1       0.5438714573E+02       3   64    1      -0.1841226456E+05      0.2164526713E+05      0.4402803325E+05      0.3929342413E+04
         13                10           0             3   64     1       0.3807100136E+02       3   64    1      -0.9022087279E+04      0.1074654033E+05      0.2164526713E+05      0.3929342413E+04
         14                10           0             3   64     1       0.2664970050E+02       3   64    1      -0.4420876848E+04      0.5537832031E+04      0.1074654033E+05      0.3929342413E+04
         15                10           0             3   64     1       0.1865479003E+02       3   64    1      -0.2166267210E+04      0.3204989695E+04      0.5537832031E+04      0.3929342413E+04
         16                10           0             3   64     1       0.1305835280E+02       3   64    1      -0.1061496902E+04      0.2315442131E+04      0.3204989695E+04      0.3929342413E+04
          0                11          78           347  264     1       0.8123468371E+03      38  175    1      -0.5412087263E+03      0.2043783120E+04      0.2315442131E+04      0.8123468371E+03
                                                   Max.-Head-Change                        Max.-Flux-Residual
  Residual-Control   Outer-Iter.   Inner-Iter.     Column Row Layer    Max.-Head-Change    Column Row Layer    Max.-Flux-Residual            L2-New               L2-Old           Solver-Max-Delh
          1                11           0           314  282     1       0.2842142583E+03     314  282    1      -0.1535454910E+06      0.7216545904E+06      0.2043783120E+04      0.8123468371E+03
          2                11           0           314  282     1       0.1989499774E+03     314  282    1      -0.1074847526E+06      0.4644316992E+06      0.7216545904E+06      0.8123468371E+03
          3                11           0           314  282     1       0.1392649818E+03     314  282    1      -0.7524223618E+05      0.2680841593E+06      0.4644316992E+06      0.8123468371E+03
          4                11           0           314  282     1       0.9748548561E+02     314  282    1      -0.4905533237E+05      0.1390156821E+06      0.2680841593E+06      0.8123468371E+03
          5                11           0           314  282     1       0.6823983877E+02     314  282    1      -0.2403773511E+05      0.6816206594E+05      0.1390156821E+06      0.8123468371E+03
          6                11           0           314  282     1       0.4776788632E+02     314  282    1      -0.1177892570E+05      0.3346370777E+05      0.6816206594E+05      0.8123468371E+03
          7                11           0           314  282     1       0.3343751986E+02     314  282    1      -0.5771978275E+04      0.1650423498E+05      0.3346370777E+05      0.8123468371E+03
          8                11           0           314  282     1       0.2340626350E+02     314  282    1      -0.2828482423E+04      0.8282671567E+04      0.1650423498E+05      0.8123468371E+03
          9                11           0           314  282     1       0.1638438417E+02     314  282    1      -0.1386105305E+04      0.4422975761E+04      0.8282671567E+04      0.8123468371E+03
         10                11           0           314  282     1       0.1146906873E+02     314  282    1      -0.6792956013E+03      0.2786888713E+04      0.4422975761E+04      0.8123468371E+03
                                                   Max.-Head-Change                        Max.-Flux-Residual
  Residual-Control   Outer-Iter.   Inner-Iter.     Column Row Layer    Max.-Head-Change    Column Row Layer    Max.-Flux-Residual            L2-New               L2-Old           Solver-Max-Delh
          0                12          74           334  258     1       0.1115356174E+04      38  175    1      -0.5264043683E+03      0.2224200996E+04      0.2786888713E+04      0.1115356174E+04
          1                12           0           334  258     1       0.7807493088E+03     334  258    1      -0.5970238254E+06      0.1552200925E+07      0.2224200996E+04      0.1115356174E+04
          2                12           0           334  258     1       0.5465245069E+03     334  258    1      -0.4179169165E+06      0.1053931271E+07      0.1552200925E+07      0.1115356174E+04
          3                12           0           334  258     1       0.3825671483E+03     334  258    1      -0.2925420824E+06      0.7104292076E+06      0.1053931271E+07      0.1115356174E+04
          4                12           0           334  258     1       0.2677969992E+03     334  258    1      -0.2047797000E+06      0.4664426994E+06      0.7104292076E+06      0.1115356174E+04
          5                12           0           334  258     1       0.1874578963E+03     334  258    1      -0.1433460334E+06      0.2910067397E+06      0.4664426994E+06      0.1115356174E+04
          6                12           0           334  258     1       0.1312205252E+03     334  258    1      -0.1003424675E+06      0.1715283305E+06      0.2910067397E+06      0.1115356174E+04
          7                12           0           334  258     1       0.9185436605E+02     334  258    1      -0.5845523329E+05      0.9120755173E+05      0.1715283305E+06      0.1115356174E+04
          8                12           0           334  258     1       0.6429805514E+02     334  258    1      -0.2864313236E+05      0.4475228698E+05      0.9120755173E+05      0.1115356174E+04
          9                12           0           334  258     1       0.4500863783E+02     334  258    1      -0.1403518250E+05      0.2203111467E+05      0.4475228698E+05      0.1115356174E+04
                                                   Max.-Head-Change                        Max.-Flux-Residual
  Residual-Control   Outer-Iter.   Inner-Iter.     Column Row Layer    Max.-Head-Change    Column Row Layer    Max.-Flux-Residual            L2-New               L2-Old           Solver-Max-Delh
         10                12           0           334  258     1       0.3150604594E+02     334  258    1      -0.6877272674E+04      0.1098242994E+05      0.2203111467E+05      0.1115356174E+04
         11                12           0           334  258     1       0.2205423179E+02     334  258    1      -0.3369886737E+04      0.5731035960E+04      0.1098242994E+05      0.1115356174E+04
         12                12           0           334  258     1       0.1543796199E+02     334  258    1      -0.1651260515E+04      0.3419580158E+04      0.5731035960E+04      0.1115356174E+04
         13                12           0           334  258     1       0.1080657321E+02     334  258    1      -0.8091286757E+03      0.2566843331E+04      0.3419580158E+04      0.1115356174E+04
          0                13          76           284  335     1       0.3086858377E+04      38  175    1      -0.5214397781E+03      0.2314852590E+04      0.2566843331E+04      0.3086858377E+04
          1                13           0           284  335     1       0.2160800827E+04     284  335    1      -0.1756691924E+07      0.4315423049E+07      0.2314852590E+04      0.3086858377E+04
          2                13           0           284  335     1       0.1512560553E+04     284  335    1      -0.1229684162E+07      0.3016581700E+07      0.4315423049E+07      0.3086858377E+04
          3                13           0           284  335     1       0.1058792369E+04     284  335    1      -0.8607787341E+06      0.2107134690E+07      0.3016581700E+07      0.3086858377E+04
          4                13           0           284  335     1       0.7411546457E+03     284  335    1      -0.6025449393E+06      0.1470231954E+07      0.2107134690E+07      0.3086858377E+04
          5                13           0           284  335     1       0.5188082432E+03     284  335    1      -0.4217812860E+06      0.1023148146E+07      0.1470231954E+07      0.3086858377E+04
                                                   Max.-Head-Change                        Max.-Flux-Residual
  Residual-Control   Outer-Iter.   Inner-Iter.     Column Row Layer    Max.-Head-Change    Column Row Layer    Max.-Flux-Residual            L2-New               L2-Old           Solver-Max-Delh
          6                13           0           284  335     1       0.3631657640E+03     284  335    1      -0.2952467308E+06      0.6992358087E+06      0.1023148146E+07      0.3086858377E+04
          7                13           0           284  335     1       0.2542160305E+03     284  335    1      -0.2066725437E+06      0.4620114607E+06      0.6992358087E+06      0.3086858377E+04
          8                13           0           284  335     1       0.1779512183E+03     284  335    1      -0.1446706138E+06      0.2815631134E+06      0.4620114607E+06      0.3086858377E+04
          9                13           0           284  335     1       0.1245658507E+03     284  335    1      -0.1012692636E+06      0.1767716702E+06      0.2815631134E+06      0.3086858377E+04
         10                13           0           284  335     1       0.8719609400E+02     284  335    1      -0.6157687907E+05      0.1014408139E+06      0.1767716702E+06      0.3086858377E+04
         11                13           0           284  335     1       0.6103726476E+02     284  335    1      -0.3017249475E+05      0.4968840127E+05      0.1014408139E+06      0.3086858377E+04
         12                13           0           284  335     1       0.4272608461E+02     284  335    1      -0.1478439916E+05      0.2439737188E+05      0.4968840127E+05      0.3086858377E+04
         13                13           0           284  335     1       0.2990825872E+02     284  335    1      -0.7244269119E+04      0.1210713584E+05      0.2439737188E+05      0.3086858377E+04
         14                13           0           284  335     1       0.2093578074E+02     284  335    1      -0.3549631109E+04      0.6259882540E+04      0.1210713584E+05      0.3086858377E+04
         15                13           0           284  335     1       0.1465504627E+02     284  335    1      -0.1739276452E+04      0.3670410964E+04      0.6259882540E+04      0.3086858377E+04
                                                   Max.-Head-Change                        Max.-Flux-Residual
  Residual-Control   Outer-Iter.   Inner-Iter.     Column Row Layer    Max.-Head-Change    Column Row Layer    Max.-Flux-Residual            L2-New               L2-Old           Solver-Max-Delh
         16                13           0           284  335     1       0.1025853222E+02     284  335    1      -0.8522152352E+03      0.2703554790E+04      0.3670410964E+04      0.3086858377E+04
          0                14          74           350   42     1       0.2215373252E+05      38  175    1      -0.5197427428E+03      0.2415311123E+04      0.2703554790E+04      0.2215373252E+05
          1                14           0           350   42     1       0.1550761250E+05     350   42    1      -0.1181718766E+08      0.1914534368E+08      0.2415311123E+04      0.2215373252E+05
          2                14           0           350   42     1       0.1085532857E+05     350   42    1      -0.8272030780E+07      0.1339920504E+08      0.1914534368E+08      0.2215373252E+05
          3                14           0           350   42     1       0.7598729867E+04     350   42    1      -0.5790421009E+07      0.9377949280E+07      0.1339920504E+08      0.2215373252E+05
          4                14           0           350   42     1       0.5319110816E+04     350   42    1      -0.4053294199E+07      0.6565121546E+07      0.9377949280E+07      0.2215373252E+05
          5                14           0           350   42     1       0.3723377508E+04     350   42    1      -0.2837305453E+07      0.4596094349E+07      0.6565121546E+07      0.2215373252E+05
          6                14           0           350   42     1       0.2606364211E+04     350   42    1      -0.1986113345E+07      0.3217151298E+07      0.4596094349E+07      0.2215373252E+05
          7                14           0           350   42     1       0.1824454917E+04     350   42    1      -0.1390278880E+07      0.2252016360E+07      0.3217151298E+07      0.2215373252E+05
          8                14           0           350   42     1       0.1277118420E+04     350   42    1      -0.9731947611E+06      0.1576058896E+07      0.2252016360E+07      0.2215373252E+05
                                                   Max.-Head-Change                        Max.-Flux-Residual
  Residual-Control   Outer-Iter.   Inner-Iter.     Column Row Layer    Max.-Head-Change    Column Row Layer    Max.-Flux-Residual            L2-New               L2-Old           Solver-Max-Delh
          9                14           0           350   42     1       0.8939828788E+03     350   42    1      -0.6812358830E+06      0.1102759947E+07      0.1576058896E+07      0.2215373252E+05
         10                14           0           350   42     1       0.6257880045E+03     350   42    1      -0.4768646718E+06      0.7713959156E+06      0.1102759947E+07      0.2215373252E+05
         11                14           0           350   42     1       0.4380515957E+03     350   42    1      -0.3338048264E+06      0.5398047191E+06      0.7713959156E+06      0.2215373252E+05
         12                14           0           350   42     1       0.3066361118E+03     350   42    1      -0.2336629364E+06      0.3779354248E+06      0.5398047191E+06      0.2215373252E+05
         13                14           0           350   42     1       0.2146452746E+03     350   42    1      -0.1635636145E+06      0.2617327432E+06      0.3779354248E+06      0.2215373252E+05
         14                14           0           350   42     1       0.1502516896E+03     350   42    1      -0.1144940900E+06      0.1724099138E+06      0.2617327432E+06      0.2215373252E+05
         15                14           0           350   42     1       0.1051761810E+03     350   42    1      -0.7542379530E+05      0.1035327808E+06      0.1724099138E+06      0.2215373252E+05
         16                14           0           350   42     1       0.7362332542E+02     350   42    1      -0.3695728526E+05      0.5077716489E+05      0.1035327808E+06      0.2215373252E+05
         17                14           0           350   42     1       0.5153632691E+02     350   42    1      -0.1810880775E+05      0.2497341431E+05      0.5077716489E+05      0.2215373252E+05
         18                14           0           350   42     1       0.3607542823E+02     350   42    1      -0.8873132328E+04      0.1242137471E+05      0.2497341431E+05      0.2215373252E+05
                                                   Max.-Head-Change                        Max.-Flux-Residual
  Residual-Control   Outer-Iter.   Inner-Iter.     Column Row Layer    Max.-Head-Change    Column Row Layer    Max.-Flux-Residual            L2-New               L2-Old           Solver-Max-Delh
         19                14           0           350   42     1       0.2525279933E+02     350   42    1      -0.4347706290E+04      0.6445583809E+04      0.1242137471E+05      0.2215373252E+05
         20                14           0           350   42     1       0.1767695923E+02     350   42    1      -0.2130285943E+04      0.3801158487E+04      0.6445583809E+04      0.2215373252E+05
         21                14           0           350   42     1       0.1237387125E+02     350   42    1      -0.1043776845E+04      0.2815828347E+04      0.3801158487E+04      0.2215373252E+05
          0                15          72           315  389     1       0.5221553870E+03      38  175    1      -0.5194590329E+03      0.2521222797E+04      0.2815828347E+04      0.5221553870E+03
          1                15           0           315  389     1       0.3655087646E+03     318  391    1       0.1922249868E+06      0.8927522521E+06      0.2521222797E+04      0.5221553870E+03
          2                15           0           315  389     1       0.2558561309E+03     318  391    1       0.1345525597E+06      0.5975210770E+06      0.8927522521E+06      0.5221553870E+03
          3                15           0           315  389     1       0.1790992886E+03     318  391    1       0.9418186138E+05      0.3687981631E+06      0.5975210770E+06      0.5221553870E+03
          4                15           0           315  389     1       0.1253694999E+03     318  391    1       0.6592237305E+05      0.2117151262E+06      0.3687981631E+06      0.5221553870E+03
          5                15           0           315  389     1       0.8775864841E+02     318  391    1       0.3711459491E+05      0.1123103369E+06      0.2117151262E+06      0.5221553870E+03
          6                15           0           315  389     1       0.6143105284E+02     318  391    1       0.1818247446E+05      0.5503253525E+05      0.1123103369E+06      0.5221553870E+03
                                                   Max.-Head-Change                        Max.-Flux-Residual
  Residual-Control   Outer-Iter.   Inner-Iter.     Column Row Layer    Max.-Head-Change    Column Row Layer    Max.-Flux-Residual            L2-New               L2-Old           Solver-Max-Delh
          7                15           0           315  389     1       0.4300173626E+02     318  391    1       0.8906839062E+04      0.2702010028E+05      0.5503253525E+05      0.5221553870E+03
          8                15           0           315  389     1       0.3010121487E+02     318  391    1       0.4362550190E+04      0.1338797469E+05      0.2702010028E+05      0.5221553870E+03
          9                15           0           315  389     1       0.2107085005E+02     318  391    1       0.2136389339E+04      0.6883312934E+04      0.1338797469E+05      0.5221553870E+03
         10                15           0           315  389     1       0.1474959478E+02     318  391    1       0.1045948995E+04      0.3988322558E+04      0.6883312934E+04      0.5221553870E+03
         11                15           0           315  389     1       0.1032471617E+02     318  391    1       0.5118981483E+03      0.2907521815E+04      0.3988322558E+04      0.5221553870E+03
          0                16          75           389   35     1       0.5347768009E+04      38  175    1      -0.5094612181E+03      0.2594420502E+04      0.2907521815E+04      0.5347768009E+04
          1                16           0           389   35     1       0.1604330466E+04     370   38    1      -0.4300992386E+06      0.1013954605E+07      0.2594420502E+04      0.5347768009E+04
          2                16           0           370   38     1       0.4827291342E+03     370   38    1      -0.3010701297E+06      0.6868099250E+06      0.1013954605E+07      0.5347768009E+04
          3                16           0           370   38     1       0.3379103882E+03     370   38    1      -0.2107489355E+06      0.4662968665E+06      0.6868099250E+06      0.5347768009E+04
          4                16           0           370   38     1       0.2365372677E+03     370   38    1      -0.1475241007E+06      0.3046610460E+06      0.4662968665E+06      0.5347768009E+04
                                                   Max.-Head-Change                        Max.-Flux-Residual
  Residual-Control   Outer-Iter.   Inner-Iter.     Column Row Layer    Max.-Head-Change    Column Row Layer    Max.-Flux-Residual            L2-New               L2-Old           Solver-Max-Delh
          5                16           0           370   38     1       0.1655760846E+03     370   38    1      -0.1032667171E+06      0.1891208780E+06      0.3046610460E+06      0.5347768009E+04
          6                16           0           370   38     1       0.1159032572E+03     370   38    1      -0.7228654907E+05      0.1138219281E+06      0.1891208780E+06      0.5347768009E+04
          7                16           0           370   38     1       0.8113227868E+02     370   38    1      -0.3637268638E+05      0.5657459843E+05      0.1138219281E+06      0.5347768009E+04
          8                16           0           370   38     1       0.5679259411E+02     370   38    1      -0.1782248587E+05      0.2781941913E+05      0.5657459843E+05      0.5347768009E+04
          9                16           0           370   38     1       0.3975481520E+02     370   38    1      -0.8732926704E+04      0.1382028373E+05      0.2781941913E+05      0.5347768009E+04
         10                16           0           370   38     1       0.2782837016E+02     370   38    1      -0.4279070012E+04      0.7136713569E+04      0.1382028373E+05      0.5347768009E+04
         11                16           0           370   38     1       0.1947985878E+02     370   38    1      -0.2096699310E+04      0.4155852927E+04      0.7136713569E+04      0.5347768009E+04
         12                16           0           370   38     1       0.1363590092E+02     370   38    1      -0.1027351004E+04      0.3031926681E+04      0.4155852927E+04      0.5347768009E+04
          0                17          74           395  306     1       0.2290119467E+04       3   64    1      -0.5059454307E+03      0.2696151925E+04      0.3031926681E+04      0.2290119467E+04
          1                17           0           342    1     1       0.1348455552E+04     342    1    1      -0.8589487964E+06      0.1086492368E+07      0.2696151925E+04      0.2290119467E+04
                                                   Max.-Head-Change                        Max.-Flux-Residual
  Residual-Control   Outer-Iter.   Inner-Iter.     Column Row Layer    Max.-Head-Change    Column Row Layer    Max.-Flux-Residual            L2-New               L2-Old           Solver-Max-Delh
          2                17           0           342    1     1       0.9439188701E+03     342    1    1      -0.6012644207E+06      0.7432982923E+06      0.1086492368E+07      0.2290119467E+04
          3                17           0           342    1     1       0.6607431978E+03     342    1    1      -0.4208853608E+06      0.5055382787E+06      0.7432982923E+06      0.2290119467E+04
          4                17           0           342    1     1       0.4625202306E+03     342    1    1      -0.2946200211E+06      0.3469593241E+06      0.5055382787E+06      0.2290119467E+04
          5                17           0           342    1     1       0.3237641559E+03     342    1    1      -0.2062342847E+06      0.2404776316E+06      0.3469593241E+06      0.2290119467E+04
          6                17           0           342    1     1       0.2266349053E+03     342    1    1      -0.1443642704E+06      0.1675209686E+06      0.2404776316E+06      0.2290119467E+04
          7                17           0           342    1     1       0.1586444310E+03     342    1    1      -0.1010552610E+06      0.1170006557E+06      0.1675209686E+06      0.2290119467E+04
          8                17           0           342    1     1       0.1110510998E+03     342    1    1      -0.7073895503E+05      0.8183018716E+05      0.1170006557E+06      0.2290119467E+04
          9                17           0           342    1     1       0.7773576854E+02     342    1    1      -0.3699846704E+05      0.4285877244E+05      0.8183018716E+05      0.2290119467E+04
         10                17           0           342    1     1       0.5441503705E+02     342    1    1      -0.1812933870E+05      0.2113389881E+05      0.4285877244E+05      0.2290119467E+04
         11                17           0           342    1     1       0.3809052529E+02     342    1    1      -0.8883438737E+04      0.1061847598E+05      0.2113389881E+05      0.2290119467E+04
                                                   Max.-Head-Change                        Max.-Flux-Residual
  Residual-Control   Outer-Iter.   Inner-Iter.     Column Row Layer    Max.-Head-Change    Column Row Layer    Max.-Flux-Residual            L2-New               L2-Old           Solver-Max-Delh
         12                17           0           342    1     1       0.2666336725E+02     342    1    1      -0.4352928732E+04      0.5706124706E+04      0.1061847598E+05      0.2290119467E+04
         13                17           0           342    1     1       0.1866435675E+02     342    1    1      -0.2132965481E+04      0.3648204674E+04      0.5706124706E+04      0.2290119467E+04
          0                18          75           348   43     1       0.1807162761E+04     342    1    1      -0.1045174129E+04      0.2949722273E+04      0.3648204674E+04      0.1807162761E+04
          1                18           0           348   43     1       0.1265013911E+04     348   43    1      -0.5864353624E+06      0.1450090846E+07      0.2949722273E+04      0.1807162761E+04
          2                18           0           348   43     1       0.8855097228E+03     348   43    1      -0.4105046373E+06      0.1009732865E+07      0.1450090846E+07      0.1807162761E+04
          3                18           0           348   43     1       0.6198567954E+03     348   43    1      -0.2873531318E+06      0.6993643871E+06      0.1009732865E+07      0.1807162761E+04
          4                18           0           348   43     1       0.4338997494E+03     348   43    1      -0.2011470794E+06      0.4849923365E+06      0.6993643871E+06      0.1807162761E+04
          5                18           0           348   43     1       0.3037298194E+03     348   43    1      -0.1408028438E+06      0.3312918016E+06      0.4849923365E+06      0.1807162761E+04
          6                18           0           348   43     1       0.2126108700E+03     348   43    1      -0.9856187955E+05      0.2196429368E+06      0.3312918016E+06      0.1807162761E+04
          7                18           0           348   43     1       0.1488276064E+03     348   43    1      -0.6899320510E+05      0.1411873886E+06      0.2196429368E+06      0.1807162761E+04
                                                   Max.-Head-Change                        Max.-Flux-Residual
  Residual-Control   Outer-Iter.   Inner-Iter.     Column Row Layer    Max.-Head-Change    Column Row Layer    Max.-Flux-Residual            L2-New               L2-Old           Solver-Max-Delh
          8                18           0           348   43     1       0.1041793227E+03     348   43    1      -0.4503143056E+05      0.7897690473E+05      0.1411873886E+06      0.1807162761E+04
          9                18           0           348   43     1       0.7292552467E+02     348   43    1      -0.2206527772E+05      0.3881431444E+05      0.7897690473E+05      0.1807162761E+04
         10                18           0           348   43     1       0.5104786640E+02     348   43    1      -0.1081189977E+05      0.1921921505E+05      0.3881431444E+05      0.1807162761E+04
         11                18           0           348   43     1       0.3573350587E+02     348   43    1      -0.5297770364E+04      0.9784185681E+04      0.1921921505E+05      0.1807162761E+04
         12                18           0           348   43     1       0.2501345368E+02     348   43    1      -0.2595864963E+04      0.5454390186E+04      0.9784185681E+04      0.1807162761E+04
         13                18           0           348   43     1       0.1750941728E+02     348   43    1      -0.1271943905E+04      0.3713528906E+04      0.5454390186E+04      0.1807162761E+04
          0                19          74           321  395     1       0.6131992493E+03     342    1    1      -0.1038863996E+04      0.3148482617E+04      0.3713528906E+04      0.6131992493E+03
          1                19           0           321  395     1       0.1839597821E+03     328  394    1      -0.9931140793E+05      0.2123190577E+06      0.3148482617E+04      0.6131992493E+03
          2                19           0           328  394     1       0.1246778466E+03     328  394    1      -0.6951816068E+05      0.1204515587E+06      0.2123190577E+06      0.6131992493E+03
          3                19           0           328  394     1       0.8727449111E+02     328  394    1      -0.4721754738E+05      0.6979980869E+05      0.1204515587E+06      0.6131992493E+03
                                                   Max.-Head-Change                        Max.-Flux-Residual
  Residual-Control   Outer-Iter.   Inner-Iter.     Column Row Layer    Max.-Head-Change    Column Row Layer    Max.-Flux-Residual            L2-New               L2-Old           Solver-Max-Delh
          4                19           0           328  394     1       0.6109214274E+02     328  394    1      -0.2313666533E+05      0.3428188907E+05      0.6979980869E+05      0.6131992493E+03
          5                19           0           328  394     1       0.4276449919E+02     328  394    1      -0.1133701278E+05      0.1696968170E+05      0.3428188907E+05      0.6131992493E+03
          6                19           0           328  394     1       0.2993514892E+02     328  394    1      -0.5555168704E+04      0.8677011901E+04      0.1696968170E+05      0.6131992493E+03
          7                19           0           328  394     1       0.2095460389E+02     328  394    1      -0.2722055037E+04      0.4955470349E+04      0.8677011901E+04      0.6131992493E+03
          8                19           0           328  394     1       0.1466822247E+02     328  394    1      -0.1333822271E+04      0.3556960578E+04      0.4955470349E+04      0.6131992493E+03
          0                20          77           338   45     1       0.3049873656E+04     342    1    1      -0.1001825681E+04      0.3164026116E+04      0.3556960578E+04      0.3049873656E+04
          1                20           0           338   45     1       0.2134911523E+04     339   44    1      -0.1209208155E+07      0.2929672317E+07      0.3164026116E+04      0.3049873656E+04
          2                20           0           338   45     1       0.1494438041E+04     339   44    1      -0.8464030575E+06      0.2047744771E+07      0.2929672317E+07      0.3049873656E+04
          3                20           0           338   45     1       0.1046106611E+04     339   44    1      -0.5924394933E+06      0.1430887707E+07      0.2047744771E+07      0.3049873656E+04
          4                20           0           338   45     1       0.7322746150E+03     339   44    1      -0.4146650014E+06      0.9979969268E+06      0.1430887707E+07      0.3049873656E+04
                                                   Max.-Head-Change                        Max.-Flux-Residual
  Residual-Control   Outer-Iter.   Inner-Iter.     Column Row Layer    Max.-Head-Change    Column Row Layer    Max.-Flux-Residual            L2-New               L2-Old           Solver-Max-Delh
          5                20           0           338   45     1       0.5125922217E+03     339   44    1      -0.2902228592E+06      0.6953458177E+06      0.9979969268E+06      0.3049873656E+04
          6                20           0           338   45     1       0.3588145491E+03     339   44    1      -0.2031133611E+06      0.4833012359E+06      0.6953458177E+06      0.3049873656E+04
          7                20           0           338   45     1       0.2511701801E+03     339   44    1      -0.1421367135E+06      0.3294005222E+06      0.4833012359E+06      0.3049873656E+04
          8                20           0           338   45     1       0.1758191231E+03     339   44    1      -0.9945306087E+05      0.2195767471E+06      0.3294005222E+06      0.3049873656E+04
          9                20           0           338   45     1       0.1230733841E+03     339   44    1      -0.6957450456E+05      0.1398371186E+06      0.2195767471E+06      0.3049873656E+04
         10                20           0           338   45     1       0.8615136737E+02     339   44    1      -0.3608789026E+05      0.7124324402E+05      0.1398371186E+06      0.3049873656E+04
         11                20           0           338   45     1       0.6030595613E+02     339   44    1      -0.1766100639E+05      0.3495910041E+05      0.7124324402E+05      0.3049873656E+04
         12                20           0           338   45     1       0.4221416857E+02     339   44    1      -0.8638451292E+04      0.1730830201E+05      0.3495910041E+05      0.3049873656E+04
         13                20           0           338   45     1       0.2954991750E+02     339   44    1      -0.4222031822E+04      0.8887929114E+04      0.1730830201E+05      0.3049873656E+04
         14                20           0           338   45     1       0.2068494190E+02     339   44    1      -0.2061229022E+04      0.5134656270E+04      0.8887929114E+04      0.3049873656E+04
                                                   Max.-Head-Change                        Max.-Flux-Residual
  Residual-Control   Outer-Iter.   Inner-Iter.     Column Row Layer    Max.-Head-Change    Column Row Layer    Max.-Flux-Residual            L2-New               L2-Old           Solver-Max-Delh
         15                20           0           338   45     1       0.1447945908E+02     339   44    1      -0.1004705552E+04      0.3722066175E+04      0.5134656270E+04      0.3049873656E+04
          0                21          65           329  398     1       0.2016510417E+03     342    1    1      -0.9988599410E+03      0.3301881584E+04      0.3722066175E+04      0.2016510417E+03
          1                21           0           329  398     1       0.1411557268E+03     333  398    1      -0.6716433131E+05      0.2635197510E+06      0.3301881584E+04      0.2016510417E+03
          2                21           0           329  398     1       0.9880900708E+02     327  399    1      -0.4372230930E+05      0.1488279487E+06      0.2635197510E+06      0.2016510417E+03
          3                21           0           329  398     1       0.6916630378E+02     327  399    1      -0.2302431544E+05      0.7400421145E+05      0.1488279487E+06      0.2016510417E+03
          4                21           0           329  398     1       0.4841641182E+02     327  399    1      -0.1128197926E+05      0.3626130518E+05      0.7400421145E+05      0.2016510417E+03
          5                21           0           329  398     1       0.3389148770E+02     327  399    1      -0.5528214823E+04      0.1788788576E+05      0.3626130518E+05      0.2016510417E+03
          6                21           0           329  398     1       0.2372404098E+02     327  399    1      -0.2708856414E+04      0.9102856127E+04      0.1788788576E+05      0.2016510417E+03
          7                21           0           329  398     1       0.1660682841E+02     327  399    1      -0.1327361088E+04      0.5173663090E+04      0.9102856127E+04      0.2016510417E+03
          8                21           0           329  398     1       0.1162477969E+02     342    1    1      -0.9481872623E+03      0.3710244825E+04      0.5173663090E+04      0.2016510417E+03
                                                   Max.-Head-Change                        Max.-Flux-Residual
  Residual-Control   Outer-Iter.   Inner-Iter.     Column Row Layer    Max.-Head-Change    Column Row Layer    Max.-Flux-Residual            L2-New               L2-Old           Solver-Max-Delh
          0                22          67           334    1     1       0.3463514246E+04     342    1    1      -0.9632505726E+03      0.3307616146E+04      0.3710244825E+04      0.3463514246E+04
          1                22           0           334    1     1       0.2424459931E+04     334    1    1      -0.1544426575E+07      0.2129844911E+07      0.3307616146E+04      0.3463514246E+04
          2                22           0           334    1     1       0.1697121923E+04     334    1    1      -0.1081098736E+07      0.1484320227E+07      0.2129844911E+07      0.3463514246E+04
          3                22           0           334    1     1       0.1187985326E+04     334    1    1      -0.7567692546E+06      0.1031830445E+07      0.1484320227E+07      0.3463514246E+04
          4                22           0           334    1     1       0.8315897138E+03     334    1    1      -0.5297386213E+06      0.7170603823E+06      0.1031830445E+07      0.3463514246E+04
          5                22           0           334    1     1       0.5821127897E+03     334    1    1      -0.3708171806E+06      0.4991818894E+06      0.7170603823E+06      0.3463514246E+04
          6                22           0           334    1     1       0.4074789459E+03     334    1    1      -0.2595721741E+06      0.3484830625E+06      0.4991818894E+06      0.3463514246E+04
          7                22           0           334    1     1       0.2852352572E+03     334    1    1      -0.1817006708E+06      0.2436226396E+06      0.3484830625E+06      0.3463514246E+04
          8                22           0           334    1     1       0.1996646767E+03     334    1    1      -0.1271906195E+06      0.1704402681E+06      0.2436226396E+06      0.3463514246E+04
          9                22           0           334    1     1       0.1397652713E+03     334    1    1      -0.8903358416E+05      0.1133724202E+06      0.1704402681E+06      0.3463514246E+04
                                                   Max.-Head-Change                        Max.-Flux-Residual
[...]
          0               210           2           391  400     1       0.4719342914E-01     390  400    1      -0.1776804419E+00      0.2675883494E+00      0.3039997883E+00      0.4719342914E-01
          0               211           2           391  400     1       0.4461961295E-01     390  400    1      -0.1563821196E+00      0.2355475583E+00      0.2675883494E+00      0.4461961295E-01
          0               212           2           391  400     1       0.4190182113E-01     390  400    1      -0.1376215462E+00      0.2076445495E+00      0.2355475583E+00      0.4190182113E-01
          0               213           5           391  400     1       0.3905141566E-01     390  400    1      -0.1211061713E+00      0.1827894705E+00      0.2076445495E+00      0.3905141566E-01
          0               214           9           391  400     1       0.3607834296E-01     390  400    1      -0.1065757922E+00      0.1609295615E+00      0.1827894705E+00      0.3607834296E-01
                                                   Max.-Head-Change                        Max.-Flux-Residual
  Residual-Control   Outer-Iter.   Inner-Iter.     Column Row Layer    Max.-Head-Change    Column Row Layer    Max.-Flux-Residual            L2-New               L2-Old           Solver-Max-Delh
          0               215           5           369  400     1       0.8640326790E-01     390  400    1      -0.9379912298E-01      0.1417590360E+00      0.1609295615E+00      0.8640326790E-01
          0               216           2           391  400     1       0.2980142734E-01     390  400    1      -0.8257072830E-01      0.1261596840E+00      0.1417590360E+00      0.2980142734E-01
          0               217           2           391  400     1       0.2651624132E-01     390  400    1      -0.7270825742E-01      0.1111466550E+00      0.1261596840E+00      0.2651624132E-01
          0               218           2           391  400     1       0.2314661735E-01     390  400    1      -0.6404996266E-01      0.9794016447E-01      0.1111466550E+00      0.2314661735E-01
          0               219           2           391  400     1       0.4706794245E+00     390  400    1      -0.5656803646E-01      0.8640767329E-01      0.9794016447E-01      0.4706794245E+00
          1               219           0           391  400     1       0.3294755915E+00     391  400    1      -0.6498306011E+00      0.7457618959E+00      0.8640767329E-01      0.4706794245E+00
          2               219           0           391  400     1       0.2306329101E+00     391  400    1      -0.3144968168E+00      0.3625099453E+00      0.7457618959E+00      0.4706794245E+00
          3               219           0           391  400     1       0.1614430343E+00     391  400    1      -0.1509395898E+00      0.1829673409E+00      0.3625099453E+00      0.4706794245E+00
          4               219           0           391  400     1       0.1130101221E+00     391  400    1      -0.7132597643E-01      0.1087371171E+00      0.1829673409E+00      0.4706794245E+00
          0               220           5           391  400     1      -0.4533281927E-01     390  400    1      -0.4199723628E-01      0.8783623477E-01      0.1087371171E+00     -0.4533281927E-01
                                                   Max.-Head-Change                        Max.-Flux-Residual
  Residual-Control   Outer-Iter.   Inner-Iter.     Column Row Layer    Max.-Head-Change    Column Row Layer    Max.-Flux-Residual            L2-New               L2-Old           Solver-Max-Delh
          0               221           5           391  400     1      -0.2583671484E-01     390  400    1      -0.4407386741E-01      0.7345777919E-01      0.8783623477E-01     -0.2583671484E-01
          0               222           5           391  400     1      -0.1230943853E-01     390  400    1      -0.4174571864E-01      0.6506377666E-01      0.7345777919E-01     -0.1230943853E-01
          0               223           5           390  400     1      -0.6913842884E-02     390  400    1      -0.3802867897E-01      0.5796538075E-01      0.6506377666E-01     -0.6913842884E-02
          0               224           2           390  400     1      -0.6436594028E-02     390  400    1      -0.3408744124E-01      0.5150507377E-01      0.5796538075E-01     -0.6436594028E-02
          0               225           2           390  400     1      -0.5960861108E-02     390  400    1      -0.3035961120E-01      0.4566140075E-01      0.5150507377E-01     -0.5960861108E-02
          0               226           4           390  400     1      -0.5505684413E-02     390  400    1      -0.2697767231E-01      0.4043965459E-01      0.4566140075E-01     -0.5505684413E-02
          0               227           2           390  400     1      -0.5076146674E-02     390  400    1      -0.2395210077E-01      0.3579963864E-01      0.4043965459E-01     -0.5076146674E-02
          0               228           2           390  400     1      -0.4672470643E-02     390  400    1      -0.2125745201E-01      0.3168160498E-01      0.3579963864E-01     -0.4672470643E-02
          0               229           2           390  400     1      -0.4293768023E-02     390  400    1      -0.1886126905E-01      0.2803165367E-01      0.3168160498E-01     -0.4293768023E-02
          0               230           2           390  400     1      -0.3938987056E-02     390  400    1      -0.1673188967E-01      0.2479785474E-01      0.2803165367E-01     -0.3938987056E-02
                                                   Max.-Head-Change                        Max.-Flux-Residual
  Residual-Control   Outer-Iter.   Inner-Iter.     Column Row Layer    Max.-Head-Change    Column Row Layer    Max.-Flux-Residual            L2-New               L2-Old           Solver-Max-Delh
          0               231           2           390  400     1      -0.3607114030E-02     390  400    1      -0.1484028802E-01      0.2193355643E-01      0.2479785474E-01     -0.3607114030E-02
          0               232           2           390  400     1      -0.3297199855E-02     390  400    1      -0.1316033917E-01      0.1939727303E-01      0.2193355643E-01     -0.3297199855E-02
          0               233           2           390  400     1      -0.3008348142E-02     390  400    1      -0.1166867545E-01      0.1715198616E-01      0.1939727303E-01     -0.3008348142E-02
          0               234           2           390  400     1      -0.2739697305E-02     390  400    1      -0.1034444715E-01      0.1516473721E-01      0.1715198616E-01     -0.2739697305E-02
          0               235           2           390  400     1      -0.2490404247E-02     390  400    1      -0.9169073193E-02      0.1340622059E-01      0.1516473721E-01     -0.2490404247E-02
          0               236           2           390  400     1      -0.2259631465E-02     390  400    1      -0.8126005498E-02      0.1185040223E-01      0.1340622059E-01     -0.2259631465E-02
          0               237           2           390  400     1      -0.2046537946E-02     390  400    1      -0.7200512964E-02      0.1047416839E-01      0.1185040223E-01     -0.2046537946E-02
          0               238           2           390  400     1      -0.1850273737E-02     390  400    1      -0.6379485973E-02      0.9257008924E-02      0.1047416839E-01     -0.1850273737E-02
          0               239           2           390  400     1      -0.1669977902E-02     390  400    1      -0.5651260532E-02      0.8180731009E-02      0.9257008924E-02     -0.1669977902E-02
          0               240           2           390  400     1      -0.1504779372E-02     390  400    1      -0.5005460672E-02      0.7229202650E-02      0.8180731009E-02     -0.1504779372E-02
                                                   Max.-Head-Change                        Max.-Flux-Residual
  Residual-Control   Outer-Iter.   Inner-Iter.     Column Row Layer    Max.-Head-Change    Column Row Layer    Max.-Flux-Residual            L2-New               L2-Old           Solver-Max-Delh
          0               241           2           390  400     1      -0.1353800171E-02     390  400    1      -0.4432857562E-02      0.6388124860E-02      0.7229202650E-02     -0.1353800171E-02
          0               242           2           390  400     1      -0.1216160370E-02     390  400    1      -0.3925243781E-02      0.5644827045E-02      0.6388124860E-02     -0.1216160370E-02
          0               243           2           390  400     1      -0.1090984195E-02     390  400    1      -0.3475321244E-02      0.4988084907E-02      0.5644827045E-02     -0.1090984195E-02
          0               244           2           390  400     1      -0.9774066694E-03     390  400    1      -0.3076601364E-02      0.4407958207E-02      0.4988084907E-02     -0.9774066694E-03
          0               245           2           390  400     1      -0.8745802860E-03     390  400    1      -0.2723316541E-02      0.3895648347E-02      0.4407958207E-02     -0.8745802860E-03
          0               246           2           390  400     1      -0.7816813753E-03     390  400    1      -0.2410340701E-02      0.3443368961E-02      0.3895648347E-02     -0.7816813753E-03
          0               247           2           390  400     1      -0.6979158363E-03     390  400    1      -0.2133117788E-02      0.3044226903E-02      0.3443368961E-02     -0.6979158363E-03
          0               248           2           390  400     1      -0.6225237760E-03     390  400    1      -0.1887600242E-02      0.2692126283E-02      0.3044226903E-02     -0.6225237760E-03
          0               249           2           390  400     1      -0.5547832965E-03     390  400    1      -0.1670193008E-02      0.2381678071E-02      0.2692126283E-02     -0.5547832965E-03
          0               250           2           390  400     1      -0.4940132463E-03     390  400    1      -0.1477703683E-02      0.2108120190E-02      0.2381678071E-02     -0.4940132463E-03
                                                   Max.-Head-Change                        Max.-Flux-Residual
  Residual-Control   Outer-Iter.   Inner-Iter.     Column Row Layer    Max.-Head-Change    Column Row Layer    Max.-Flux-Residual            L2-New               L2-Old           Solver-Max-Delh
          0               251           2           390  400     1      -0.4395749733E-03     390  400    1      -0.1307298107E-02      0.1867245531E-02      0.2108120190E-02     -0.4395749733E-03
          0               252           2           390  400     1      -0.3908731585E-03     390  400    1      -0.1156460781E-02      0.1655338535E-02      0.1867245531E-02     -0.3908731585E-03
          0               253           2           390  400     1      -0.3473558409E-03     390  400    1      -0.1022959602E-02      0.1469118157E-02      0.1655338535E-02     -0.3473558409E-03
          0               254           2           390  400     1      -0.3085137562E-03     390  400    1      -0.9048144317E-03      0.1305687599E-02      0.1469118157E-02     -0.3085137562E-03
          0               255           2           390  400     1      -0.2738791200E-03     390  400    1      -0.8002690896E-03      0.1162488253E-02      0.1305687599E-02     -0.2738791200E-03
          0               256           2           390  400     1      -0.2430239779E-03     390  400    1      -0.7077663942E-03      0.1037259282E-02      0.1162488253E-02     -0.2430239779E-03
          0               257           2           390  400     1      -0.2155582373E-03     390  400    1      -0.6259259352E-03      0.9280002086E-03      0.1037259282E-02     -0.2155582373E-03
          0               258           2           390  400     1      -0.1911274829E-03     390  400    1      -0.5535242761E-03      0.8329371592E-03      0.9280002086E-03     -0.1911274829E-03
          0               259           2           390  400     1      -0.1694106631E-03     390  400    1      -0.4894773311E-03      0.7504911247E-03      0.8329371592E-03     -0.1694106631E-03
          0               260           2           390  400     1      -0.1501177181E-03     390  400    1      -0.4328246820E-03      0.6792527839E-03      0.7504911247E-03     -0.1501177181E-03
                                                   Max.-Head-Change                        Max.-Flux-Residual
  Residual-Control   Outer-Iter.   Inner-Iter.     Column Row Layer    Max.-Head-Change    Column Row Layer    Max.-Flux-Residual            L2-New               L2-Old           Solver-Max-Delh
          0               261           2           390  400     1      -0.1329872093E-03     390  400    1      -0.3827156273E-03      0.6179559321E-03      0.6792527839E-03     -0.1329872093E-03
          0               262           2           390  400     1      -0.1177839951E-03     390  400    1      -0.3383967777E-03      0.5654537039E-03      0.6179559321E-03     -0.1177839951E-03
          0               263           2           390  400     1      -0.1042969865E-03     390  400    1      -0.2992010300E-03      0.5207027457E-03      0.5654537039E-03     -0.1042969865E-03
          0               264           2           390  400     1      -0.9233700723E-04     390  400    1      -0.2645377714E-03      0.4827496042E-03      0.5207027457E-03     -0.9233700723E-04
          0               265           2           390  400     1      -0.8173477480E-04     390  400    1      -0.2338841791E-03      0.4507161080E-03      0.4827496042E-03     -0.8173477480E-04
          0               266           2           390  400     1      -0.7233901207E-04     390  400    1      -0.2067774968E-03      0.4237997850E-03      0.4507161080E-03     -0.7233901207E-04
          0               267           2           390  400     1      -0.6401469394E-04     390  400    1      -0.1828081797E-03      0.4012663877E-03      0.4237997850E-03     -0.6401469394E-04
          0               268           2           390  400     1      -0.5664142972E-04     390  400    1      -0.1616138135E-03      0.3824498526E-03      0.4012663877E-03     -0.5664142972E-04
          0               269           1           390  400     1      -0.5011197903E-04     390  400    1      -0.1428737203E-03      0.3667548618E-03      0.3824498526E-03     -0.5011197903E-04
          0               270           1           390  400     1      -0.4433089448E-04     390  400    1      -0.1263041763E-03      0.3250955074E-03      0.3667548618E-03     -0.4433089448E-04
                                                   Max.-Head-Change                        Max.-Flux-Residual
  Residual-Control   Outer-Iter.   Inner-Iter.     Column Row Layer    Max.-Head-Change    Column Row Layer    Max.-Flux-Residual            L2-New               L2-Old           Solver-Max-Delh
          0               271           1           390  400     1      -0.3921329035E-04     390  400    1      -0.1116541743E-03      0.2884089957E-03      0.3250955074E-03     -0.3921329035E-04
          0               272           1           390  400     1      -0.3468372295E-04     390  400    1      -0.9870166512E-04      0.2561024993E-03      0.2884089957E-03     -0.3468372295E-04
          0               273           1           390  400     1      -0.3067518023E-04     390  400    1      -0.8725023021E-04      0.2276533835E-03      0.2561024993E-03     -0.3067518023E-04
          0               274           1           390  400     1      -0.2712817078E-04     390  400    1      -0.7712613347E-04      0.2026003220E-03      0.2276533835E-03     -0.2712817078E-04
          0               275           1           390  400     1      -0.2398990436E-04     390  400    1      -0.6817571015E-04      0.1805362710E-03      0.2026003220E-03     -0.2398990436E-04
          0               276           1           390  400     1      -0.2121355658E-04     390  400    1      -0.6026305462E-04      0.1611027660E-03      0.1805362710E-03     -0.2121355658E-04
          0               277           1           390  400     1      -0.1875760999E-04     390  400    1      -0.5326797341E-04      0.1439850504E-03      0.1611027660E-03     -0.1875760999E-04
          0               278           1           390  400     1      -0.1658526461E-04     390  400    1      -0.4708417306E-04      0.1289074568E-03      0.1439850504E-03     -0.1658526461E-04
          0               279           1           390  400     1      -0.1466391145E-04     390  400    1      -0.4161765625E-04      0.1156287727E-03      0.1289074568E-03     -0.1466391145E-04
          0               280           1           390  400     1      -0.1296466271E-04     390  400    1      -0.3678530218E-04      0.1039377877E-03      0.1156287727E-03     -0.1296466271E-04

    ------------------------------------------------
       NWT REQUIRED          280 OUTER ITERATIONS 
       AND A TOTAL OF       6066 INNER ITERATIONS.
    ------------------------------------------------

 OUTPUT CONTROL FOR STRESS PERIOD    1   TIME STEP    1
    PRINT BUDGET
    SAVE HEAD FOR ALL LAYERS
    SAVE DRAWDOWN FOR ALL LAYERS
    SAVE BUDGET
 UBDSV2 SAVING "   CONSTANT HEAD" ON UNIT  40 AT TIME STEP  1, STRESS PERIOD   1
 UBDSV1 SAVING "FLOW RIGHT FACE " ON UNIT  40 AT TIME STEP  1, STRESS PERIOD   1
 UBDSV1 SAVING "FLOW FRONT FACE " ON UNIT  40 AT TIME STEP  1, STRESS PERIOD   1
 UBDSV3 SAVING "        RECHARGE" ON UNIT  40 AT TIME STEP  1, STRESS PERIOD   1

 SAVING SATURATED THICKNESS AND FLOW TERMS ON UNIT  333 FOR MT3DMS
 BY THE LINK-MT3DMS PACKAGE V7 AT TIME STEP    1, STRESS PERIOD    1


 HEAD WILL BE SAVED ON UNIT    2 AT END OF TIME STEP    1, STRESS PERIOD    1

 DRAWDOWN WILL BE SAVED ON UNIT   12 AT END OF TIME STEP    1, STRESS PERIOD    1
1
  VOLUMETRIC BUDGET FOR ENTIRE MODEL AT END OF TIME STEP    1, STRESS PERIOD   1
  ------------------------------------------------------------------------------

     CUMULATIVE VOLUMES      L**3       RATES FOR THIS TIME STEP      L**3/T
     ------------------                 ------------------------

           IN:                                      IN:
           ---                                      ---
             STORAGE     =           0.0000               STORAGE     =           0.0000
       CONSTANT HEAD     =           0.0000         CONSTANT HEAD     =           0.0000
            RECHARGE     =         233.7231              RECHARGE     =         233.7231

                TOTAL IN =         233.7231                  TOTAL IN =         233.7231

          OUT:                                     OUT:
          ----                                     ----
             STORAGE     =           0.0000               STORAGE     =           0.0000
       CONSTANT HEAD     =         233.7252         CONSTANT HEAD     =         233.7252
            RECHARGE     =           0.0000              RECHARGE     =           0.0000

               TOTAL OUT =         233.7252                 TOTAL OUT =         233.7252

                IN - OUT =      -2.1057E-03                  IN - OUT =      -2.1057E-03

     PERCENT DISCREPANCY =          -0.00         PERCENT DISCREPANCY =          -0.00






         TIME SUMMARY AT END OF TIME STEP    1 IN STRESS PERIOD    1
                    SECONDS     MINUTES      HOURS       DAYS        YEARS
                    -----------------------------------------------------------
   TIME STEP LENGTH  86400.      1440.0      24.000      1.0000     2.73785E-03
 STRESS PERIOD TIME  86400.      1440.0      24.000      1.0000     2.73785E-03
         TOTAL TIME  86400.      1440.0      24.000      1.0000     2.73785E-03
1

 Run end date and time (yyyy/mm/dd hh:mm:ss): 2023/05/24 23:03:51
 Elapsed run time:  1 Minutes, 45.476 Seconds

