                                  MODFLOW-NWT-SWR1 
      U.S. GEOLOGICAL SURVEY MODULAR FINITE-DIFFERENCE GROUNDWATER-FLOW MODEL
                            VERSION 1.2.0 03/01/2020
                    BASED ON MODFLOW-2005 VERSION 1.12.00 02/03/2017

 LIST FILE: case2.out
                         UNIT    1

 OPENING case2.hed
 FILE TYPE:DATA(BINARY)   UNIT    2   STATUS:UNKNOWN
 FORMAT:BINARY                 ACCESS:SEQUENTIAL          

 OPENING case2.drw
 FILE TYPE:DATA(BINARY)   UNIT   12   STATUS:UNKNOWN
 FORMAT:BINARY                 ACCESS:SEQUENTIAL          

 OPENING case2.ccf
 FILE TYPE:DATA(BINARY)   UNIT   40   STATUS:UNKNOWN
 FORMAT:BINARY                 ACCESS:SEQUENTIAL          

 OPENING case2.lmt6
 FILE TYPE:LMT6   UNIT    8   STATUS:OLD    
 FORMAT:FORMATTED              ACCESS:SEQUENTIAL          

 OPENING case2.dis
 FILE TYPE:DIS   UNIT    4   STATUS:OLD    
 FORMAT:FORMATTED              ACCESS:SEQUENTIAL          

 OPENING case2.ba6
 FILE TYPE:BAS6   UNIT    7   STATUS:OLD    
 FORMAT:FORMATTED              ACCESS:SEQUENTIAL          

 OPENING case2.upw
 FILE TYPE:UPW   UNIT    3   STATUS:OLD    
 FORMAT:FORMATTED              ACCESS:SEQUENTIAL          

 OPENING case2.oc
 FILE TYPE:OC   UNIT    9   STATUS:OLD    
 FORMAT:FORMATTED              ACCESS:SEQUENTIAL          

 OPENING case2.drn
 FILE TYPE:DRN   UNIT   10   STATUS:OLD    
 FORMAT:FORMATTED              ACCESS:SEQUENTIAL          

 OPENING case2.ghb
 FILE TYPE:GHB   UNIT   11   STATUS:OLD    
 FORMAT:FORMATTED              ACCESS:SEQUENTIAL          

 OPENING case2.nwt
 FILE TYPE:NWT   UNIT   14   STATUS:OLD    
 FORMAT:FORMATTED              ACCESS:SEQUENTIAL          

 BAS -- BASIC PACKAGE, VERSION 1.2.0, 3/01/2020 INPUT READ FROM UNIT    7
 
 MODFLOW was compiled using mixed precision
 Precision of REAL variables:           6
 Precision of DOUBLE PRECISION variables:          15

 DISCRETIZATION INPUT DATA READ FROM UNIT    4
 # MF2K DISCRETIZATION FILE
 #
 #
 # NLAY NROW NCOL NPER TIMEUNITS LENUNITS
   40 LAYERS         1 ROWS       100 COLUMNS
    3 STRESS PERIOD(S) IN SIMULATION
 MODEL TIME UNIT IS DAYS
 MODEL LENGTH UNIT IS METERS
  Confining bed flag for each layer:
   0   0   0   0   0   0   0   0   0   0   0   0   0   0   0   0   0   0   0   0
   0   0   0   0   0   0   0   0   0   0   0   0   0   0   0   0   0   0   0   0

                     DELR =   1.00000    

                     DELC =   1.00000    

 TOP ELEVATION OF LAYER 1 =   40.0000    

   MODEL LAYER BOTTOM EL. =   39.0000     FOR LAYER   1

   MODEL LAYER BOTTOM EL. =   38.0000     FOR LAYER   2

   MODEL LAYER BOTTOM EL. =   37.0000     FOR LAYER   3

   MODEL LAYER BOTTOM EL. =   36.0000     FOR LAYER   4

   MODEL LAYER BOTTOM EL. =   35.0000     FOR LAYER   5

   MODEL LAYER BOTTOM EL. =   34.0000     FOR LAYER   6

   MODEL LAYER BOTTOM EL. =   33.0000     FOR LAYER   7

   MODEL LAYER BOTTOM EL. =   32.0000     FOR LAYER   8

   MODEL LAYER BOTTOM EL. =   31.0000     FOR LAYER   9

   MODEL LAYER BOTTOM EL. =   30.0000     FOR LAYER  10

   MODEL LAYER BOTTOM EL. =   29.0000     FOR LAYER  11

   MODEL LAYER BOTTOM EL. =   28.0000     FOR LAYER  12

   MODEL LAYER BOTTOM EL. =   27.0000     FOR LAYER  13

   MODEL LAYER BOTTOM EL. =   26.0000     FOR LAYER  14

   MODEL LAYER BOTTOM EL. =   25.0000     FOR LAYER  15

   MODEL LAYER BOTTOM EL. =   24.0000     FOR LAYER  16

   MODEL LAYER BOTTOM EL. =   23.0000     FOR LAYER  17

   MODEL LAYER BOTTOM EL. =   22.0000     FOR LAYER  18

   MODEL LAYER BOTTOM EL. =   21.0000     FOR LAYER  19

   MODEL LAYER BOTTOM EL. =   20.0000     FOR LAYER  20

   MODEL LAYER BOTTOM EL. =   19.0000     FOR LAYER  21

   MODEL LAYER BOTTOM EL. =   18.0000     FOR LAYER  22

   MODEL LAYER BOTTOM EL. =   17.0000     FOR LAYER  23

   MODEL LAYER BOTTOM EL. =   16.0000     FOR LAYER  24

   MODEL LAYER BOTTOM EL. =   15.0000     FOR LAYER  25

   MODEL LAYER BOTTOM EL. =   14.0000     FOR LAYER  26

   MODEL LAYER BOTTOM EL. =   13.0000     FOR LAYER  27

   MODEL LAYER BOTTOM EL. =   12.0000     FOR LAYER  28

   MODEL LAYER BOTTOM EL. =   11.0000     FOR LAYER  29

   MODEL LAYER BOTTOM EL. =   10.0000     FOR LAYER  30

   MODEL LAYER BOTTOM EL. =   9.00000     FOR LAYER  31

   MODEL LAYER BOTTOM EL. =   8.00000     FOR LAYER  32

   MODEL LAYER BOTTOM EL. =   7.00000     FOR LAYER  33

   MODEL LAYER BOTTOM EL. =   6.00000     FOR LAYER  34

   MODEL LAYER BOTTOM EL. =   5.00000     FOR LAYER  35

   MODEL LAYER BOTTOM EL. =   4.00000     FOR LAYER  36

   MODEL LAYER BOTTOM EL. =   3.00000     FOR LAYER  37

   MODEL LAYER BOTTOM EL. =   2.00000     FOR LAYER  38

   MODEL LAYER BOTTOM EL. =   1.00000     FOR LAYER  39

   MODEL LAYER BOTTOM EL. =   0.00000     FOR LAYER  40


 STRESS PERIOD     LENGTH       TIME STEPS     MULTIPLIER FOR DELT    SS FLAG
 ----------------------------------------------------------------------------
        1         10.00000         10                    1.000         TR
        2         10.00000         10                    1.000         TR
        3         10.00000         10                    1.000         TR

 TRANSIENT SIMULATION



 
 THE FREE FORMAT OPTION HAS BEEN SELECTED



                     BOUNDARY ARRAY FOR LAYER   1
 READING ON UNIT    7 WITH FORMAT: (FREE)              



                     BOUNDARY ARRAY FOR LAYER   2
 READING ON UNIT    7 WITH FORMAT: (FREE)              



                     BOUNDARY ARRAY FOR LAYER   3
 READING ON UNIT    7 WITH FORMAT: (FREE)              



                     BOUNDARY ARRAY FOR LAYER   4
 READING ON UNIT    7 WITH FORMAT: (FREE)              



                     BOUNDARY ARRAY FOR LAYER   5
 READING ON UNIT    7 WITH FORMAT: (FREE)              



                     BOUNDARY ARRAY FOR LAYER   6
 READING ON UNIT    7 WITH FORMAT: (FREE)              



                     BOUNDARY ARRAY FOR LAYER   7
 READING ON UNIT    7 WITH FORMAT: (FREE)              



                     BOUNDARY ARRAY FOR LAYER   8
 READING ON UNIT    7 WITH FORMAT: (FREE)              



                     BOUNDARY ARRAY FOR LAYER   9
 READING ON UNIT    7 WITH FORMAT: (FREE)              



                     BOUNDARY ARRAY FOR LAYER  10
 READING ON UNIT    7 WITH FORMAT: (FREE)              



                     BOUNDARY ARRAY FOR LAYER  11
 READING ON UNIT    7 WITH FORMAT: (FREE)              



                     BOUNDARY ARRAY FOR LAYER  12
 READING ON UNIT    7 WITH FORMAT: (FREE)              



                     BOUNDARY ARRAY FOR LAYER  13
 READING ON UNIT    7 WITH FORMAT: (FREE)              



                     BOUNDARY ARRAY FOR LAYER  14
 READING ON UNIT    7 WITH FORMAT: (FREE)              



                     BOUNDARY ARRAY FOR LAYER  15
 READING ON UNIT    7 WITH FORMAT: (FREE)              



                     BOUNDARY ARRAY FOR LAYER  16
 READING ON UNIT    7 WITH FORMAT: (FREE)              



                     BOUNDARY ARRAY FOR LAYER  17
 READING ON UNIT    7 WITH FORMAT: (FREE)              



                     BOUNDARY ARRAY FOR LAYER  18
 READING ON UNIT    7 WITH FORMAT: (FREE)              



                     BOUNDARY ARRAY FOR LAYER  19
 READING ON UNIT    7 WITH FORMAT: (FREE)              



                     BOUNDARY ARRAY FOR LAYER  20
 READING ON UNIT    7 WITH FORMAT: (FREE)              



                     BOUNDARY ARRAY FOR LAYER  21
 READING ON UNIT    7 WITH FORMAT: (FREE)              



                     BOUNDARY ARRAY FOR LAYER  22
 READING ON UNIT    7 WITH FORMAT: (FREE)              



                     BOUNDARY ARRAY FOR LAYER  23
 READING ON UNIT    7 WITH FORMAT: (FREE)              



                     BOUNDARY ARRAY FOR LAYER  24
 READING ON UNIT    7 WITH FORMAT: (FREE)              



                     BOUNDARY ARRAY FOR LAYER  25
 READING ON UNIT    7 WITH FORMAT: (FREE)              



                     BOUNDARY ARRAY FOR LAYER  26
 READING ON UNIT    7 WITH FORMAT: (FREE)              



                     BOUNDARY ARRAY FOR LAYER  27
 READING ON UNIT    7 WITH FORMAT: (FREE)              



                     BOUNDARY ARRAY FOR LAYER  28
 READING ON UNIT    7 WITH FORMAT: (FREE)              



                     BOUNDARY ARRAY FOR LAYER  29
 READING ON UNIT    7 WITH FORMAT: (FREE)              



                     BOUNDARY ARRAY FOR LAYER  30
 READING ON UNIT    7 WITH FORMAT: (FREE)              



                     BOUNDARY ARRAY FOR LAYER  31
 READING ON UNIT    7 WITH FORMAT: (FREE)              



                     BOUNDARY ARRAY FOR LAYER  32
 READING ON UNIT    7 WITH FORMAT: (FREE)              



                     BOUNDARY ARRAY FOR LAYER  33
 READING ON UNIT    7 WITH FORMAT: (FREE)              



                     BOUNDARY ARRAY FOR LAYER  34
 READING ON UNIT    7 WITH FORMAT: (FREE)              



                     BOUNDARY ARRAY FOR LAYER  35
 READING ON UNIT    7 WITH FORMAT: (FREE)              



                     BOUNDARY ARRAY FOR LAYER  36
 READING ON UNIT    7 WITH FORMAT: (FREE)              



                     BOUNDARY ARRAY FOR LAYER  37
 READING ON UNIT    7 WITH FORMAT: (FREE)              



                     BOUNDARY ARRAY FOR LAYER  38
 READING ON UNIT    7 WITH FORMAT: (FREE)              



                     BOUNDARY ARRAY FOR LAYER  39
 READING ON UNIT    7 WITH FORMAT: (FREE)              

           BOUNDARY ARRAY =              1 FOR LAYER  40

 AQUIFER HEAD WILL BE SET TO  -9999.0     AT ALL NO-FLOW NODES (IBOUND=0).

             INITIAL HEAD =   38.0000     FOR LAYER   1

             INITIAL HEAD =   38.0000     FOR LAYER   2

             INITIAL HEAD =   38.0000     FOR LAYER   3

             INITIAL HEAD =   38.0000     FOR LAYER   4

             INITIAL HEAD =   38.0000     FOR LAYER   5

             INITIAL HEAD =   38.0000     FOR LAYER   6

             INITIAL HEAD =   38.0000     FOR LAYER   7

             INITIAL HEAD =   38.0000     FOR LAYER   8

             INITIAL HEAD =   38.0000     FOR LAYER   9

             INITIAL HEAD =   38.0000     FOR LAYER  10

             INITIAL HEAD =   38.0000     FOR LAYER  11

             INITIAL HEAD =   38.0000     FOR LAYER  12

             INITIAL HEAD =   38.0000     FOR LAYER  13

             INITIAL HEAD =   38.0000     FOR LAYER  14

             INITIAL HEAD =   38.0000     FOR LAYER  15

             INITIAL HEAD =   38.0000     FOR LAYER  16

             INITIAL HEAD =   38.0000     FOR LAYER  17

             INITIAL HEAD =   38.0000     FOR LAYER  18

             INITIAL HEAD =   38.0000     FOR LAYER  19

             INITIAL HEAD =   38.0000     FOR LAYER  20

             INITIAL HEAD =   38.0000     FOR LAYER  21

             INITIAL HEAD =   38.0000     FOR LAYER  22

             INITIAL HEAD =   38.0000     FOR LAYER  23

             INITIAL HEAD =   38.0000     FOR LAYER  24

             INITIAL HEAD =   38.0000     FOR LAYER  25

             INITIAL HEAD =   38.0000     FOR LAYER  26

             INITIAL HEAD =   38.0000     FOR LAYER  27

             INITIAL HEAD =   38.0000     FOR LAYER  28

             INITIAL HEAD =   38.0000     FOR LAYER  29

             INITIAL HEAD =   38.0000     FOR LAYER  30

             INITIAL HEAD =   38.0000     FOR LAYER  31

             INITIAL HEAD =   38.0000     FOR LAYER  32

             INITIAL HEAD =   38.0000     FOR LAYER  33

             INITIAL HEAD =   38.0000     FOR LAYER  34

             INITIAL HEAD =   38.0000     FOR LAYER  35

             INITIAL HEAD =   38.0000     FOR LAYER  36

             INITIAL HEAD =   38.0000     FOR LAYER  37

             INITIAL HEAD =   38.0000     FOR LAYER  38

             INITIAL HEAD =   38.0000     FOR LAYER  39

             INITIAL HEAD =   38.0000     FOR LAYER  40

 OUTPUT CONTROL IS SPECIFIED ONLY AT TIME STEPS FOR WHICH OUTPUT IS DESIRED
 COMPACT CELL-BY-CELL BUDGET FILES WILL BE WRITTEN
 AUXILIARY DATA WILL BE SAVED IN CELL-BY-CELL BUDGET FILES
 HEAD PRINT FORMAT CODE IS   0    DRAWDOWN PRINT FORMAT CODE IS   0
 HEADS WILL BE SAVED ON UNIT    2    DRAWDOWNS WILL BE SAVED ON UNIT   12
 #

 NWT1 -- Newton Solver, VERSION 1.2.0, 3/01/2020
         INPUT READ FROM UNIT 14

 SIMPLE OPTION:
 DEFAULT SOLVER INPUT VALUES REFLECT NEARLY LINEAR MODEL
 ***XMD linear solver will be used***
 
   CONVERGENCE CRITERION OF   0.100000E-03 FOR HEAD SOLUTION
   AND A TOLERANCE OF   0.100000E-03 FOR FLOW SOLUTION AND 
   A MAXIMUM OF 50000 OUTER ITERATIONS. 


   D-B-D REDUCTION FACTOR OF    0.970000E+00 AND 
   A D-B-D INCREASE FACTOR OF    0.100000E-03 AND 
   A D-B-D RELAXATION OF    0.000000E+00 AND 
   A MOMENTUM FACTOR OF    0.000000E+00 .


 ***BACKTRACKING IS INACTIVE***
 XMD -- LINEAR SOLUTION BY XMD PACKAGE VERSION 1.30
     BY MOTOMU IBARAKI, OHIO STATE UNIVERSITY, COLOMBUS, OH
                 INPUT READ FROM UNIT 14
 ACCELERATION METHOD                    (IACL) =         1
 NODE ORDERING FLAG                   (NORDER) =         0
 LEVEL OF FILL                         (LEVEL) =         1
 MAXIMUM NUMBER OF ORTHOGONALIZATIONS  (NORTH) =         5
 INDEX FOR USING REDUCED SYSTEM      (IREDSYS) =         1
 RESID. REDUCTION CONVERGE CRITERION  (RRCTOL) =  0.000000E+00
 INDEX FOR USING DROP TOLERANCE     (IDROPTOL) =         1
 DROP TOLERANCE VALUE                  (EPSRN) =  0.500000E-02
 CONVERGENCE CRITERIA OF           (HCLOSEXMD) =  0.100000E-02
 MAX. NUMBER OF LINEAR ITERATIONS  (MXITERXMD) =        50


 UPW1 -- UPSTREAM WEIGHTING FLOW PACKAGE, VERSION 1.2.0, 3/01/2020
         INPUT READ FROM UNIT  3

 CELL-BY-CELL FLOWS WILL BE SAVED ON UNIT   40
 No named parameters

   LAYER FLAGS:
 LAYER       LAYTYP          LAYAVG    CHANI           LAYVKA           LAYWET
 ---------------------------------------------------------------------------
    1             1             0    -1.000E+00             1             0
    2             1             0    -1.000E+00             1             0
    3             1             0    -1.000E+00             1             0
    4             1             0    -1.000E+00             1             0
    5             1             0    -1.000E+00             1             0
    6             1             0    -1.000E+00             1             0
    7             1             0    -1.000E+00             1             0
    8             1             0    -1.000E+00             1             0
    9             1             0    -1.000E+00             1             0
   10             1             0    -1.000E+00             1             0
   11             1             0    -1.000E+00             1             0
   12             1             0    -1.000E+00             1             0
   13             1             0    -1.000E+00             1             0
   14             1             0    -1.000E+00             1             0
   15             1             0    -1.000E+00             1             0
   16             1             0    -1.000E+00             1             0
   17             1             0    -1.000E+00             1             0
   18             1             0    -1.000E+00             1             0
   19             1             0    -1.000E+00             1             0
   20             1             0    -1.000E+00             1             0
   21             1             0    -1.000E+00             1             0
   22             1             0    -1.000E+00             1             0
   23             1             0    -1.000E+00             1             0
   24             1             0    -1.000E+00             1             0
   25             1             0    -1.000E+00             1             0
   26             1             0    -1.000E+00             1             0
   27             1             0    -1.000E+00             1             0
   28             1             0    -1.000E+00             1             0
   29             1             0    -1.000E+00             1             0
   30             1             0    -1.000E+00             1             0
   31             1             0    -1.000E+00             1             0
   32             1             0    -1.000E+00             1             0
   33             1             0    -1.000E+00             1             0
   34             1             0    -1.000E+00             1             0
   35             1             0    -1.000E+00             1             0
   36             1             0    -1.000E+00             1             0
   37             1             0    -1.000E+00             1             0
   38             1             0    -1.000E+00             1             0
   39             1             0    -1.000E+00             1             0
   40             1             0    -1.000E+00             1             0

   INTERPRETATION OF LAYER FLAGS:
                        INTERBLOCK     HORIZONTAL    DATA IN
         LAYER TYPE   TRANSMISSIVITY   ANISOTROPY   ARRAY VKA   WETTABILITY
 LAYER   (LAYTYP)        (LAYAVG)      (CHANI)     (LAYVKA)       (LAYWET)
 ---------------------------------------------------------------------------
    1   CONVERTIBLE      HARMONIC      VARIABLE    ANISOTROPY  NON-WETTABLE
    2   CONVERTIBLE      HARMONIC      VARIABLE    ANISOTROPY  NON-WETTABLE
    3   CONVERTIBLE      HARMONIC      VARIABLE    ANISOTROPY  NON-WETTABLE
    4   CONVERTIBLE      HARMONIC      VARIABLE    ANISOTROPY  NON-WETTABLE
    5   CONVERTIBLE      HARMONIC      VARIABLE    ANISOTROPY  NON-WETTABLE
    6   CONVERTIBLE      HARMONIC      VARIABLE    ANISOTROPY  NON-WETTABLE
    7   CONVERTIBLE      HARMONIC      VARIABLE    ANISOTROPY  NON-WETTABLE
    8   CONVERTIBLE      HARMONIC      VARIABLE    ANISOTROPY  NON-WETTABLE
    9   CONVERTIBLE      HARMONIC      VARIABLE    ANISOTROPY  NON-WETTABLE
   10   CONVERTIBLE      HARMONIC      VARIABLE    ANISOTROPY  NON-WETTABLE
   11   CONVERTIBLE      HARMONIC      VARIABLE    ANISOTROPY  NON-WETTABLE
   12   CONVERTIBLE      HARMONIC      VARIABLE    ANISOTROPY  NON-WETTABLE
   13   CONVERTIBLE      HARMONIC      VARIABLE    ANISOTROPY  NON-WETTABLE
   14   CONVERTIBLE      HARMONIC      VARIABLE    ANISOTROPY  NON-WETTABLE
   15   CONVERTIBLE      HARMONIC      VARIABLE    ANISOTROPY  NON-WETTABLE
   16   CONVERTIBLE      HARMONIC      VARIABLE    ANISOTROPY  NON-WETTABLE
   17   CONVERTIBLE      HARMONIC      VARIABLE    ANISOTROPY  NON-WETTABLE
   18   CONVERTIBLE      HARMONIC      VARIABLE    ANISOTROPY  NON-WETTABLE
   19   CONVERTIBLE      HARMONIC      VARIABLE    ANISOTROPY  NON-WETTABLE
   20   CONVERTIBLE      HARMONIC      VARIABLE    ANISOTROPY  NON-WETTABLE
   21   CONVERTIBLE      HARMONIC      VARIABLE    ANISOTROPY  NON-WETTABLE
   22   CONVERTIBLE      HARMONIC      VARIABLE    ANISOTROPY  NON-WETTABLE
   23   CONVERTIBLE      HARMONIC      VARIABLE    ANISOTROPY  NON-WETTABLE
   24   CONVERTIBLE      HARMONIC      VARIABLE    ANISOTROPY  NON-WETTABLE
   25   CONVERTIBLE      HARMONIC      VARIABLE    ANISOTROPY  NON-WETTABLE
   26   CONVERTIBLE      HARMONIC      VARIABLE    ANISOTROPY  NON-WETTABLE
   27   CONVERTIBLE      HARMONIC      VARIABLE    ANISOTROPY  NON-WETTABLE
   28   CONVERTIBLE      HARMONIC      VARIABLE    ANISOTROPY  NON-WETTABLE
   29   CONVERTIBLE      HARMONIC      VARIABLE    ANISOTROPY  NON-WETTABLE
   30   CONVERTIBLE      HARMONIC      VARIABLE    ANISOTROPY  NON-WETTABLE
   31   CONVERTIBLE      HARMONIC      VARIABLE    ANISOTROPY  NON-WETTABLE
   32   CONVERTIBLE      HARMONIC      VARIABLE    ANISOTROPY  NON-WETTABLE
   33   CONVERTIBLE      HARMONIC      VARIABLE    ANISOTROPY  NON-WETTABLE
   34   CONVERTIBLE      HARMONIC      VARIABLE    ANISOTROPY  NON-WETTABLE
   35   CONVERTIBLE      HARMONIC      VARIABLE    ANISOTROPY  NON-WETTABLE
   36   CONVERTIBLE      HARMONIC      VARIABLE    ANISOTROPY  NON-WETTABLE
   37   CONVERTIBLE      HARMONIC      VARIABLE    ANISOTROPY  NON-WETTABLE
   38   CONVERTIBLE      HARMONIC      VARIABLE    ANISOTROPY  NON-WETTABLE
   39   CONVERTIBLE      HARMONIC      VARIABLE    ANISOTROPY  NON-WETTABLE
   40   CONVERTIBLE      HARMONIC      VARIABLE    ANISOTROPY  NON-WETTABLE



              HYD. COND. ALONG ROWS FOR LAYER   1
 READING ON UNIT    3 WITH FORMAT: (FREE)              

   HORIZ. ANI. (COL./ROW) =   1.00000     FOR LAYER   1



            HORIZ. TO VERTICAL ANI. FOR LAYER   1
 READING ON UNIT    3 WITH FORMAT: (FREE)              



                   SPECIFIC STORAGE FOR LAYER   1
 READING ON UNIT    3 WITH FORMAT: (FREE)              



                     SPECIFIC YIELD FOR LAYER   1
 READING ON UNIT    3 WITH FORMAT: (FREE)              



              HYD. COND. ALONG ROWS FOR LAYER   2
 READING ON UNIT    3 WITH FORMAT: (FREE)              

   HORIZ. ANI. (COL./ROW) =   1.00000     FOR LAYER   2



            HORIZ. TO VERTICAL ANI. FOR LAYER   2
 READING ON UNIT    3 WITH FORMAT: (FREE)              



                   SPECIFIC STORAGE FOR LAYER   2
 READING ON UNIT    3 WITH FORMAT: (FREE)              



                     SPECIFIC YIELD FOR LAYER   2
 READING ON UNIT    3 WITH FORMAT: (FREE)              



              HYD. COND. ALONG ROWS FOR LAYER   3
 READING ON UNIT    3 WITH FORMAT: (FREE)              

   HORIZ. ANI. (COL./ROW) =   1.00000     FOR LAYER   3



            HORIZ. TO VERTICAL ANI. FOR LAYER   3
 READING ON UNIT    3 WITH FORMAT: (FREE)              



                   SPECIFIC STORAGE FOR LAYER   3
 READING ON UNIT    3 WITH FORMAT: (FREE)              



                     SPECIFIC YIELD FOR LAYER   3
 READING ON UNIT    3 WITH FORMAT: (FREE)              



              HYD. COND. ALONG ROWS FOR LAYER   4
 READING ON UNIT    3 WITH FORMAT: (FREE)              

   HORIZ. ANI. (COL./ROW) =   1.00000     FOR LAYER   4



            HORIZ. TO VERTICAL ANI. FOR LAYER   4
 READING ON UNIT    3 WITH FORMAT: (FREE)              



                   SPECIFIC STORAGE FOR LAYER   4
 READING ON UNIT    3 WITH FORMAT: (FREE)              



                     SPECIFIC YIELD FOR LAYER   4
 READING ON UNIT    3 WITH FORMAT: (FREE)              



              HYD. COND. ALONG ROWS FOR LAYER   5
 READING ON UNIT    3 WITH FORMAT: (FREE)              

   HORIZ. ANI. (COL./ROW) =   1.00000     FOR LAYER   5



            HORIZ. TO VERTICAL ANI. FOR LAYER   5
 READING ON UNIT    3 WITH FORMAT: (FREE)              



                   SPECIFIC STORAGE FOR LAYER   5
 READING ON UNIT    3 WITH FORMAT: (FREE)              



                     SPECIFIC YIELD FOR LAYER   5
 READING ON UNIT    3 WITH FORMAT: (FREE)              



              HYD. COND. ALONG ROWS FOR LAYER   6
 READING ON UNIT    3 WITH FORMAT: (FREE)              

   HORIZ. ANI. (COL./ROW) =   1.00000     FOR LAYER   6



            HORIZ. TO VERTICAL ANI. FOR LAYER   6
 READING ON UNIT    3 WITH FORMAT: (FREE)              



                   SPECIFIC STORAGE FOR LAYER   6
 READING ON UNIT    3 WITH FORMAT: (FREE)              



                     SPECIFIC YIELD FOR LAYER   6
 READING ON UNIT    3 WITH FORMAT: (FREE)              



              HYD. COND. ALONG ROWS FOR LAYER   7
 READING ON UNIT    3 WITH FORMAT: (FREE)              

   HORIZ. ANI. (COL./ROW) =   1.00000     FOR LAYER   7



            HORIZ. TO VERTICAL ANI. FOR LAYER   7
 READING ON UNIT    3 WITH FORMAT: (FREE)              



                   SPECIFIC STORAGE FOR LAYER   7
 READING ON UNIT    3 WITH FORMAT: (FREE)              



                     SPECIFIC YIELD FOR LAYER   7
 READING ON UNIT    3 WITH FORMAT: (FREE)              



              HYD. COND. ALONG ROWS FOR LAYER   8
 READING ON UNIT    3 WITH FORMAT: (FREE)              

   HORIZ. ANI. (COL./ROW) =   1.00000     FOR LAYER   8



            HORIZ. TO VERTICAL ANI. FOR LAYER   8
 READING ON UNIT    3 WITH FORMAT: (FREE)              



                   SPECIFIC STORAGE FOR LAYER   8
 READING ON UNIT    3 WITH FORMAT: (FREE)              



                     SPECIFIC YIELD FOR LAYER   8
 READING ON UNIT    3 WITH FORMAT: (FREE)              



              HYD. COND. ALONG ROWS FOR LAYER   9
 READING ON UNIT    3 WITH FORMAT: (FREE)              

   HORIZ. ANI. (COL./ROW) =   1.00000     FOR LAYER   9



            HORIZ. TO VERTICAL ANI. FOR LAYER   9
 READING ON UNIT    3 WITH FORMAT: (FREE)              



                   SPECIFIC STORAGE FOR LAYER   9
 READING ON UNIT    3 WITH FORMAT: (FREE)              



                     SPECIFIC YIELD FOR LAYER   9
 READING ON UNIT    3 WITH FORMAT: (FREE)              



              HYD. COND. ALONG ROWS FOR LAYER  10
 READING ON UNIT    3 WITH FORMAT: (FREE)              

   HORIZ. ANI. (COL./ROW) =   1.00000     FOR LAYER  10



            HORIZ. TO VERTICAL ANI. FOR LAYER  10
 READING ON UNIT    3 WITH FORMAT: (FREE)              



                   SPECIFIC STORAGE FOR LAYER  10
 READING ON UNIT    3 WITH FORMAT: (FREE)              



                     SPECIFIC YIELD FOR LAYER  10
 READING ON UNIT    3 WITH FORMAT: (FREE)              



              HYD. COND. ALONG ROWS FOR LAYER  11
 READING ON UNIT    3 WITH FORMAT: (FREE)              

   HORIZ. ANI. (COL./ROW) =   1.00000     FOR LAYER  11



            HORIZ. TO VERTICAL ANI. FOR LAYER  11
 READING ON UNIT    3 WITH FORMAT: (FREE)              



                   SPECIFIC STORAGE FOR LAYER  11
 READING ON UNIT    3 WITH FORMAT: (FREE)              



                     SPECIFIC YIELD FOR LAYER  11
 READING ON UNIT    3 WITH FORMAT: (FREE)              



              HYD. COND. ALONG ROWS FOR LAYER  12
 READING ON UNIT    3 WITH FORMAT: (FREE)              

   HORIZ. ANI. (COL./ROW) =   1.00000     FOR LAYER  12



            HORIZ. TO VERTICAL ANI. FOR LAYER  12
 READING ON UNIT    3 WITH FORMAT: (FREE)              



                   SPECIFIC STORAGE FOR LAYER  12
 READING ON UNIT    3 WITH FORMAT: (FREE)              



                     SPECIFIC YIELD FOR LAYER  12
 READING ON UNIT    3 WITH FORMAT: (FREE)              



              HYD. COND. ALONG ROWS FOR LAYER  13
 READING ON UNIT    3 WITH FORMAT: (FREE)              

   HORIZ. ANI. (COL./ROW) =   1.00000     FOR LAYER  13



            HORIZ. TO VERTICAL ANI. FOR LAYER  13
 READING ON UNIT    3 WITH FORMAT: (FREE)              



                   SPECIFIC STORAGE FOR LAYER  13
 READING ON UNIT    3 WITH FORMAT: (FREE)              



                     SPECIFIC YIELD FOR LAYER  13
 READING ON UNIT    3 WITH FORMAT: (FREE)              



              HYD. COND. ALONG ROWS FOR LAYER  14
 READING ON UNIT    3 WITH FORMAT: (FREE)              

   HORIZ. ANI. (COL./ROW) =   1.00000     FOR LAYER  14



            HORIZ. TO VERTICAL ANI. FOR LAYER  14
 READING ON UNIT    3 WITH FORMAT: (FREE)              



                   SPECIFIC STORAGE FOR LAYER  14
 READING ON UNIT    3 WITH FORMAT: (FREE)              



                     SPECIFIC YIELD FOR LAYER  14
 READING ON UNIT    3 WITH FORMAT: (FREE)              



              HYD. COND. ALONG ROWS FOR LAYER  15
 READING ON UNIT    3 WITH FORMAT: (FREE)              

   HORIZ. ANI. (COL./ROW) =   1.00000     FOR LAYER  15



            HORIZ. TO VERTICAL ANI. FOR LAYER  15
 READING ON UNIT    3 WITH FORMAT: (FREE)              



                   SPECIFIC STORAGE FOR LAYER  15
 READING ON UNIT    3 WITH FORMAT: (FREE)              



                     SPECIFIC YIELD FOR LAYER  15
 READING ON UNIT    3 WITH FORMAT: (FREE)              



              HYD. COND. ALONG ROWS FOR LAYER  16
 READING ON UNIT    3 WITH FORMAT: (FREE)              

   HORIZ. ANI. (COL./ROW) =   1.00000     FOR LAYER  16



            HORIZ. TO VERTICAL ANI. FOR LAYER  16
 READING ON UNIT    3 WITH FORMAT: (FREE)              



                   SPECIFIC STORAGE FOR LAYER  16
 READING ON UNIT    3 WITH FORMAT: (FREE)              



                     SPECIFIC YIELD FOR LAYER  16
 READING ON UNIT    3 WITH FORMAT: (FREE)              



              HYD. COND. ALONG ROWS FOR LAYER  17
 READING ON UNIT    3 WITH FORMAT: (FREE)              

   HORIZ. ANI. (COL./ROW) =   1.00000     FOR LAYER  17



            HORIZ. TO VERTICAL ANI. FOR LAYER  17
 READING ON UNIT    3 WITH FORMAT: (FREE)              



                   SPECIFIC STORAGE FOR LAYER  17
 READING ON UNIT    3 WITH FORMAT: (FREE)              



                     SPECIFIC YIELD FOR LAYER  17
 READING ON UNIT    3 WITH FORMAT: (FREE)              



              HYD. COND. ALONG ROWS FOR LAYER  18
 READING ON UNIT    3 WITH FORMAT: (FREE)              

   HORIZ. ANI. (COL./ROW) =   1.00000     FOR LAYER  18



            HORIZ. TO VERTICAL ANI. FOR LAYER  18
 READING ON UNIT    3 WITH FORMAT: (FREE)              



                   SPECIFIC STORAGE FOR LAYER  18
 READING ON UNIT    3 WITH FORMAT: (FREE)              



                     SPECIFIC YIELD FOR LAYER  18
 READING ON UNIT    3 WITH FORMAT: (FREE)              



              HYD. COND. ALONG ROWS FOR LAYER  19
 READING ON UNIT    3 WITH FORMAT: (FREE)              

   HORIZ. ANI. (COL./ROW) =   1.00000     FOR LAYER  19



            HORIZ. TO VERTICAL ANI. FOR LAYER  19
 READING ON UNIT    3 WITH FORMAT: (FREE)              



                   SPECIFIC STORAGE FOR LAYER  19
 READING ON UNIT    3 WITH FORMAT: (FREE)              



                     SPECIFIC YIELD FOR LAYER  19
 READING ON UNIT    3 WITH FORMAT: (FREE)              



              HYD. COND. ALONG ROWS FOR LAYER  20
 READING ON UNIT    3 WITH FORMAT: (FREE)              

   HORIZ. ANI. (COL./ROW) =   1.00000     FOR LAYER  20



            HORIZ. TO VERTICAL ANI. FOR LAYER  20
 READING ON UNIT    3 WITH FORMAT: (FREE)              



                   SPECIFIC STORAGE FOR LAYER  20
 READING ON UNIT    3 WITH FORMAT: (FREE)              



                     SPECIFIC YIELD FOR LAYER  20
 READING ON UNIT    3 WITH FORMAT: (FREE)              



              HYD. COND. ALONG ROWS FOR LAYER  21
 READING ON UNIT    3 WITH FORMAT: (FREE)              

   HORIZ. ANI. (COL./ROW) =   1.00000     FOR LAYER  21



            HORIZ. TO VERTICAL ANI. FOR LAYER  21
 READING ON UNIT    3 WITH FORMAT: (FREE)              



                   SPECIFIC STORAGE FOR LAYER  21
 READING ON UNIT    3 WITH FORMAT: (FREE)              



                     SPECIFIC YIELD FOR LAYER  21
 READING ON UNIT    3 WITH FORMAT: (FREE)              



              HYD. COND. ALONG ROWS FOR LAYER  22
 READING ON UNIT    3 WITH FORMAT: (FREE)              

   HORIZ. ANI. (COL./ROW) =   1.00000     FOR LAYER  22



            HORIZ. TO VERTICAL ANI. FOR LAYER  22
 READING ON UNIT    3 WITH FORMAT: (FREE)              



                   SPECIFIC STORAGE FOR LAYER  22
 READING ON UNIT    3 WITH FORMAT: (FREE)              



                     SPECIFIC YIELD FOR LAYER  22
 READING ON UNIT    3 WITH FORMAT: (FREE)              



              HYD. COND. ALONG ROWS FOR LAYER  23
 READING ON UNIT    3 WITH FORMAT: (FREE)              

   HORIZ. ANI. (COL./ROW) =   1.00000     FOR LAYER  23



            HORIZ. TO VERTICAL ANI. FOR LAYER  23
 READING ON UNIT    3 WITH FORMAT: (FREE)              



                   SPECIFIC STORAGE FOR LAYER  23
 READING ON UNIT    3 WITH FORMAT: (FREE)              



                     SPECIFIC YIELD FOR LAYER  23
 READING ON UNIT    3 WITH FORMAT: (FREE)              



              HYD. COND. ALONG ROWS FOR LAYER  24
 READING ON UNIT    3 WITH FORMAT: (FREE)              

   HORIZ. ANI. (COL./ROW) =   1.00000     FOR LAYER  24



            HORIZ. TO VERTICAL ANI. FOR LAYER  24
 READING ON UNIT    3 WITH FORMAT: (FREE)              



                   SPECIFIC STORAGE FOR LAYER  24
 READING ON UNIT    3 WITH FORMAT: (FREE)              



                     SPECIFIC YIELD FOR LAYER  24
 READING ON UNIT    3 WITH FORMAT: (FREE)              



              HYD. COND. ALONG ROWS FOR LAYER  25
 READING ON UNIT    3 WITH FORMAT: (FREE)              

   HORIZ. ANI. (COL./ROW) =   1.00000     FOR LAYER  25



            HORIZ. TO VERTICAL ANI. FOR LAYER  25
 READING ON UNIT    3 WITH FORMAT: (FREE)              



                   SPECIFIC STORAGE FOR LAYER  25
 READING ON UNIT    3 WITH FORMAT: (FREE)              



                     SPECIFIC YIELD FOR LAYER  25
 READING ON UNIT    3 WITH FORMAT: (FREE)              



              HYD. COND. ALONG ROWS FOR LAYER  26
 READING ON UNIT    3 WITH FORMAT: (FREE)              

   HORIZ. ANI. (COL./ROW) =   1.00000     FOR LAYER  26



            HORIZ. TO VERTICAL ANI. FOR LAYER  26
 READING ON UNIT    3 WITH FORMAT: (FREE)              



                   SPECIFIC STORAGE FOR LAYER  26
 READING ON UNIT    3 WITH FORMAT: (FREE)              



                     SPECIFIC YIELD FOR LAYER  26
 READING ON UNIT    3 WITH FORMAT: (FREE)              



              HYD. COND. ALONG ROWS FOR LAYER  27
 READING ON UNIT    3 WITH FORMAT: (FREE)              

   HORIZ. ANI. (COL./ROW) =   1.00000     FOR LAYER  27



            HORIZ. TO VERTICAL ANI. FOR LAYER  27
 READING ON UNIT    3 WITH FORMAT: (FREE)              



                   SPECIFIC STORAGE FOR LAYER  27
 READING ON UNIT    3 WITH FORMAT: (FREE)              



                     SPECIFIC YIELD FOR LAYER  27
 READING ON UNIT    3 WITH FORMAT: (FREE)              



              HYD. COND. ALONG ROWS FOR LAYER  28
 READING ON UNIT    3 WITH FORMAT: (FREE)              

   HORIZ. ANI. (COL./ROW) =   1.00000     FOR LAYER  28



            HORIZ. TO VERTICAL ANI. FOR LAYER  28
 READING ON UNIT    3 WITH FORMAT: (FREE)              



                   SPECIFIC STORAGE FOR LAYER  28
 READING ON UNIT    3 WITH FORMAT: (FREE)              



                     SPECIFIC YIELD FOR LAYER  28
 READING ON UNIT    3 WITH FORMAT: (FREE)              



              HYD. COND. ALONG ROWS FOR LAYER  29
 READING ON UNIT    3 WITH FORMAT: (FREE)              

   HORIZ. ANI. (COL./ROW) =   1.00000     FOR LAYER  29



            HORIZ. TO VERTICAL ANI. FOR LAYER  29
 READING ON UNIT    3 WITH FORMAT: (FREE)              



                   SPECIFIC STORAGE FOR LAYER  29
 READING ON UNIT    3 WITH FORMAT: (FREE)              



                     SPECIFIC YIELD FOR LAYER  29
 READING ON UNIT    3 WITH FORMAT: (FREE)              



              HYD. COND. ALONG ROWS FOR LAYER  30
 READING ON UNIT    3 WITH FORMAT: (FREE)              

   HORIZ. ANI. (COL./ROW) =   1.00000     FOR LAYER  30



            HORIZ. TO VERTICAL ANI. FOR LAYER  30
 READING ON UNIT    3 WITH FORMAT: (FREE)              



                   SPECIFIC STORAGE FOR LAYER  30
 READING ON UNIT    3 WITH FORMAT: (FREE)              



                     SPECIFIC YIELD FOR LAYER  30
 READING ON UNIT    3 WITH FORMAT: (FREE)              



              HYD. COND. ALONG ROWS FOR LAYER  31
 READING ON UNIT    3 WITH FORMAT: (FREE)              

   HORIZ. ANI. (COL./ROW) =   1.00000     FOR LAYER  31



            HORIZ. TO VERTICAL ANI. FOR LAYER  31
 READING ON UNIT    3 WITH FORMAT: (FREE)              



                   SPECIFIC STORAGE FOR LAYER  31
 READING ON UNIT    3 WITH FORMAT: (FREE)              



                     SPECIFIC YIELD FOR LAYER  31
 READING ON UNIT    3 WITH FORMAT: (FREE)              



              HYD. COND. ALONG ROWS FOR LAYER  32
 READING ON UNIT    3 WITH FORMAT: (FREE)              

   HORIZ. ANI. (COL./ROW) =   1.00000     FOR LAYER  32



            HORIZ. TO VERTICAL ANI. FOR LAYER  32
 READING ON UNIT    3 WITH FORMAT: (FREE)              



                   SPECIFIC STORAGE FOR LAYER  32
 READING ON UNIT    3 WITH FORMAT: (FREE)              



                     SPECIFIC YIELD FOR LAYER  32
 READING ON UNIT    3 WITH FORMAT: (FREE)              



              HYD. COND. ALONG ROWS FOR LAYER  33
 READING ON UNIT    3 WITH FORMAT: (FREE)              

   HORIZ. ANI. (COL./ROW) =   1.00000     FOR LAYER  33



            HORIZ. TO VERTICAL ANI. FOR LAYER  33
 READING ON UNIT    3 WITH FORMAT: (FREE)              



                   SPECIFIC STORAGE FOR LAYER  33
 READING ON UNIT    3 WITH FORMAT: (FREE)              



                     SPECIFIC YIELD FOR LAYER  33
 READING ON UNIT    3 WITH FORMAT: (FREE)              



              HYD. COND. ALONG ROWS FOR LAYER  34
 READING ON UNIT    3 WITH FORMAT: (FREE)              

   HORIZ. ANI. (COL./ROW) =   1.00000     FOR LAYER  34



            HORIZ. TO VERTICAL ANI. FOR LAYER  34
 READING ON UNIT    3 WITH FORMAT: (FREE)              



                   SPECIFIC STORAGE FOR LAYER  34
 READING ON UNIT    3 WITH FORMAT: (FREE)              



                     SPECIFIC YIELD FOR LAYER  34
 READING ON UNIT    3 WITH FORMAT: (FREE)              



              HYD. COND. ALONG ROWS FOR LAYER  35
 READING ON UNIT    3 WITH FORMAT: (FREE)              

   HORIZ. ANI. (COL./ROW) =   1.00000     FOR LAYER  35



            HORIZ. TO VERTICAL ANI. FOR LAYER  35
 READING ON UNIT    3 WITH FORMAT: (FREE)              



                   SPECIFIC STORAGE FOR LAYER  35
 READING ON UNIT    3 WITH FORMAT: (FREE)              



                     SPECIFIC YIELD FOR LAYER  35
 READING ON UNIT    3 WITH FORMAT: (FREE)              



              HYD. COND. ALONG ROWS FOR LAYER  36
 READING ON UNIT    3 WITH FORMAT: (FREE)              

   HORIZ. ANI. (COL./ROW) =   1.00000     FOR LAYER  36



            HORIZ. TO VERTICAL ANI. FOR LAYER  36
 READING ON UNIT    3 WITH FORMAT: (FREE)              



                   SPECIFIC STORAGE FOR LAYER  36
 READING ON UNIT    3 WITH FORMAT: (FREE)              



                     SPECIFIC YIELD FOR LAYER  36
 READING ON UNIT    3 WITH FORMAT: (FREE)              



              HYD. COND. ALONG ROWS FOR LAYER  37
 READING ON UNIT    3 WITH FORMAT: (FREE)              

   HORIZ. ANI. (COL./ROW) =   1.00000     FOR LAYER  37



            HORIZ. TO VERTICAL ANI. FOR LAYER  37
 READING ON UNIT    3 WITH FORMAT: (FREE)              



                   SPECIFIC STORAGE FOR LAYER  37
 READING ON UNIT    3 WITH FORMAT: (FREE)              



                     SPECIFIC YIELD FOR LAYER  37
 READING ON UNIT    3 WITH FORMAT: (FREE)              



              HYD. COND. ALONG ROWS FOR LAYER  38
 READING ON UNIT    3 WITH FORMAT: (FREE)              

   HORIZ. ANI. (COL./ROW) =   1.00000     FOR LAYER  38



            HORIZ. TO VERTICAL ANI. FOR LAYER  38
 READING ON UNIT    3 WITH FORMAT: (FREE)              



                   SPECIFIC STORAGE FOR LAYER  38
 READING ON UNIT    3 WITH FORMAT: (FREE)              



                     SPECIFIC YIELD FOR LAYER  38
 READING ON UNIT    3 WITH FORMAT: (FREE)              



              HYD. COND. ALONG ROWS FOR LAYER  39
 READING ON UNIT    3 WITH FORMAT: (FREE)              

   HORIZ. ANI. (COL./ROW) =   1.00000     FOR LAYER  39



            HORIZ. TO VERTICAL ANI. FOR LAYER  39
 READING ON UNIT    3 WITH FORMAT: (FREE)              



                   SPECIFIC STORAGE FOR LAYER  39
 READING ON UNIT    3 WITH FORMAT: (FREE)              



                     SPECIFIC YIELD FOR LAYER  39
 READING ON UNIT    3 WITH FORMAT: (FREE)              

    HYD. COND. ALONG ROWS =   4.00000     FOR LAYER  40

   HORIZ. ANI. (COL./ROW) =   1.00000     FOR LAYER  40

  HORIZ. TO VERTICAL ANI. =   1.00000     FOR LAYER  40

         SPECIFIC STORAGE =  1.000000E-04 FOR LAYER  40

           SPECIFIC YIELD =  8.000000E-02 FOR LAYER  40

 DRN -- DRAIN PACKAGE, VERSION 7, 5/2/2005 INPUT READ FROM UNIT   10
 #
 No named parameters
 MAXIMUM OF     75 ACTIVE DRAINS AT ONE TIME
 CELL-BY-CELL FLOWS WILL BE SAVED ON UNIT   40
 AUXILIARY DRAIN VARIABLE: IFACE           
 AUXILIARY DRAIN VARIABLE: CONDFACT        
 AUXILIARY DRAIN VARIABLE: CELLGRP         


     0 Drain parameters

 GHB -- GENERAL-HEAD BOUNDARY PACKAGE, VERSION 7, 5/2/2005
         INPUT READ FROM UNIT   11
 #
 No named parameters
 MAXIMUM OF     38 ACTIVE GHB CELLS AT ONE TIME
 CELL-BY-CELL FLOWS WILL BE SAVED ON UNIT   40
 AUXILIARY GHB VARIABLE: IFACE           
 AUXILIARY GHB VARIABLE: CONDFACT        
 AUXILIARY GHB VARIABLE: CELLGRP         


     0 GHB parameters

 WARNING READING LMT PACKAGE INPUT DATA:
 [STANDARD] HEADER NO LONGER SUPPORTED; [EXTENDED] HEADER USED INSTEAD.


 ***Link-MT3DMS Package v7***
 OPENING LINK-MT3DMS OUTPUT FILE: case2.hff                                                                                                                                                                                               
 ON UNIT NUMBER:   333
 FILE TYPE: UNFORMATTED
 HEADER OPTION: EXTENDED
 ***Link-MT3DMS Package v7***

1
                            STRESS PERIOD NO.    1, LENGTH =   10.00000    
                            -----------------------------------------------

                              NUMBER OF TIME STEPS =    10

                               MULTIPLIER FOR DELT =     1.000

                            INITIAL TIME STEP SIZE =   1.000000    

 DRAIN NO.  LAYER   ROW   COL     DRAIN EL.  CONDUCTANCE         IFACE           CONDFACT        CELLGRP         
 ----------------------------------------------------------------------------------------------------------------
      1      3      1     26       37.50           1.000           6.000           0.000          -1.000    
      2      4      1     27       36.50           1.000           6.000           0.000          -1.000    
      3      4      1     28       36.50           1.000           6.000           0.000          -1.000    
      4      5      1     29       35.50           1.000           6.000           0.000          -1.000    
      5      5      1     30       35.50           1.000           6.000           0.000          -1.000    
      6      6      1     31       34.50           1.000           6.000           0.000          -1.000    
      7      6      1     32       34.50           1.000           6.000           0.000          -1.000    
      8      7      1     33       33.50           1.000           6.000           0.000          -1.000    
      9      7      1     34       33.50           1.000           6.000           0.000          -1.000    
     10      8      1     35       32.50           1.000           6.000           0.000          -1.000    
     11      8      1     36       32.50           1.000           6.000           0.000          -1.000    
     12      9      1     37       31.50           1.000           6.000           0.000          -1.000    
     13      9      1     38       31.50           1.000           6.000           0.000          -1.000    
     14     10      1     39       30.50           1.000           6.000           0.000          -1.000    
     15     10      1     40       30.50           1.000           6.000           0.000          -1.000    
     16     11      1     41       29.50           1.000           6.000           0.000          -1.000    
     17     11      1     42       29.50           1.000           6.000           0.000          -1.000    
     18     12      1     43       28.50           1.000           6.000           0.000          -1.000    
     19     12      1     44       28.50           1.000           6.000           0.000          -1.000    
     20     13      1     45       27.50           1.000           6.000           0.000          -1.000    
     21     13      1     46       27.50           1.000           6.000           0.000          -1.000    
     22     14      1     47       26.50           1.000           6.000           0.000          -1.000    
     23     14      1     48       26.50           1.000           6.000           0.000          -1.000    
     24     15      1     49       25.50           1.000           6.000           0.000          -1.000    
     25     15      1     50       25.50           1.000           6.000           0.000          -1.000    
     26     16      1     51       24.50           1.000           6.000           0.000          -1.000    
     27     16      1     52       24.50           1.000           6.000           0.000          -1.000    
     28     17      1     53       23.50           1.000           6.000           0.000          -1.000    
     29     17      1     54       23.50           1.000           6.000           0.000          -1.000    
     30     18      1     55       22.50           1.000           6.000           0.000          -1.000    
     31     18      1     56       22.50           1.000           6.000           0.000          -1.000    
     32     19      1     57       21.50           1.000           6.000           0.000          -1.000    
     33     19      1     58       21.50           1.000           6.000           0.000          -1.000    
     34     20      1     59       20.50           1.000           6.000           0.000          -1.000    
     35     20      1     60       20.50           1.000           6.000           0.000          -1.000    
     36     21      1     61       19.50           1.000           6.000           0.000          -1.000    
     37     21      1     62       19.50           1.000           6.000           0.000          -1.000    
     38     22      1     63       18.50           1.000           6.000           0.000          -1.000    
     39     22      1     64       18.50           1.000           6.000           0.000          -1.000    
     40     23      1     65       17.50           1.000           6.000           0.000          -1.000    
     41     23      1     66       17.50           1.000           6.000           0.000          -1.000    
     42     24      1     67       16.50           1.000           6.000           0.000          -1.000    
     43     24      1     68       16.50           1.000           6.000           0.000          -1.000    
     44     25      1     69       15.50           1.000           6.000           0.000          -1.000    
     45     25      1     70       15.50           1.000           6.000           0.000          -1.000    
     46     26      1     71       14.50           1.000           6.000           0.000          -1.000    
     47     26      1     72       14.50           1.000           6.000           0.000          -1.000    
     48     27      1     73       13.50           1.000           6.000           0.000          -1.000    
     49     27      1     74       13.50           1.000           6.000           0.000          -1.000    
     50     28      1     75       12.50           1.000           6.000           0.000          -1.000    
     51     28      1     76       12.50           1.000           6.000           0.000          -1.000    
     52     29      1     77       11.50           1.000           6.000           0.000          -1.000    
     53     29      1     78       11.50           1.000           6.000           0.000          -1.000    
     54     30      1     79       10.50           1.000           6.000           0.000          -1.000    
     55     30      1     80       10.50           1.000           6.000           0.000          -1.000    
     56     31      1     81       9.500           1.000           6.000           0.000          -1.000    
     57     31      1     82       9.500           1.000           6.000           0.000          -1.000    
     58     32      1     83       8.500           1.000           6.000           0.000          -1.000    
     59     32      1     84       8.500           1.000           6.000           0.000          -1.000    
     60     33      1     85       7.500           1.000           6.000           0.000          -1.000    
     61     33      1     86       7.500           1.000           6.000           0.000          -1.000    
     62     34      1     87       6.500           1.000           6.000           0.000          -1.000    
     63     34      1     88       6.500           1.000           6.000           0.000          -1.000    
     64     35      1     89       5.500           1.000           6.000           0.000          -1.000    
     65     35      1     90       5.500           1.000           6.000           0.000          -1.000    
     66     36      1     91       4.500           1.000           6.000           0.000          -1.000    
     67     36      1     92       4.500           1.000           6.000           0.000          -1.000    
     68     37      1     93       3.500           1.000           6.000           0.000          -1.000    
     69     37      1     94       3.500           1.000           6.000           0.000          -1.000    
     70     38      1     95       2.500           1.000           6.000           0.000          -1.000    
     71     38      1     96       2.500           1.000           6.000           0.000          -1.000    
     72     39      1     97       1.500           1.000           6.000           0.000          -1.000    
     73     39      1     98       1.500           1.000           6.000           0.000          -1.000    
     74     40      1     99      0.5000           1.000           6.000           0.000          -1.000    
     75     40      1    100      0.5000           1.000           6.000           0.000          -1.000    

     75 DRAINS

 BOUND. NO. LAYER   ROW   COL     STAGE      CONDUCTANCE         IFACE           CONDFACT        CELLGRP         
 ----------------------------------------------------------------------------------------------------------------
      1      3      1     13       38.00          0.1000E+05       6.000           0.000          -1.000    
      2      4      1     13       38.00          0.1000E+05       6.000           0.000          -1.000    
      3      5      1     12       38.00          0.1000E+05       6.000           0.000          -1.000    
      4      6      1     12       38.00          0.1000E+05       6.000           0.000          -1.000    
      5      7      1     12       38.00          0.1000E+05       6.000           0.000          -1.000    
      6      8      1     11       38.00          0.1000E+05       6.000           0.000          -1.000    
      7      9      1     11       38.00          0.1000E+05       6.000           0.000          -1.000    
      8     10      1     11       38.00          0.1000E+05       6.000           0.000          -1.000    
      9     11      1     10       38.00          0.1000E+05       6.000           0.000          -1.000    
     10     12      1     10       38.00          0.1000E+05       6.000           0.000          -1.000    
     11     13      1     10       38.00          0.1000E+05       6.000           0.000          -1.000    
     12     14      1      9       38.00          0.1000E+05       6.000           0.000          -1.000    
     13     15      1      9       38.00          0.1000E+05       6.000           0.000          -1.000    
     14     16      1      9       38.00          0.1000E+05       6.000           0.000          -1.000    
     15     17      1      8       38.00          0.1000E+05       6.000           0.000          -1.000    
     16     18      1      8       38.00          0.1000E+05       6.000           0.000          -1.000    
     17     19      1      8       38.00          0.1000E+05       6.000           0.000          -1.000    
     18     20      1      7       38.00          0.1000E+05       6.000           0.000          -1.000    
     19     21      1      7       38.00          0.1000E+05       6.000           0.000          -1.000    
     20     22      1      7       38.00          0.1000E+05       6.000           0.000          -1.000    
     21     23      1      6       38.00          0.1000E+05       6.000           0.000          -1.000    
     22     24      1      6       38.00          0.1000E+05       6.000           0.000          -1.000    
     23     25      1      6       38.00          0.1000E+05       6.000           0.000          -1.000    
     24     26      1      5       38.00          0.1000E+05       6.000           0.000          -1.000    
     25     27      1      5       38.00          0.1000E+05       6.000           0.000          -1.000    
     26     28      1      5       38.00          0.1000E+05       6.000           0.000          -1.000    
     27     29      1      4       38.00          0.1000E+05       6.000           0.000          -1.000    
     28     30      1      4       38.00          0.1000E+05       6.000           0.000          -1.000    
     29     31      1      4       38.00          0.1000E+05       6.000           0.000          -1.000    
     30     32      1      3       38.00          0.1000E+05       6.000           0.000          -1.000    
     31     33      1      3       38.00          0.1000E+05       6.000           0.000          -1.000    
     32     34      1      3       38.00          0.1000E+05       6.000           0.000          -1.000    
     33     35      1      2       38.00          0.1000E+05       6.000           0.000          -1.000    
     34     36      1      2       38.00          0.1000E+05       6.000           0.000          -1.000    
     35     37      1      2       38.00          0.1000E+05       6.000           0.000          -1.000    
     36     38      1      1       38.00          0.1000E+05       6.000           0.000          -1.000    
     37     39      1      1       38.00          0.1000E+05       6.000           0.000          -1.000    
     38     40      1      1       38.00          0.1000E+05       6.000           0.000          -1.000    

     38 GHB CELLS
 
 SOLVING FOR HEAD 
                                                   Max.-Head-Change                         Max.-Flux-Residual
  Residual-Control   Outer-Iter.   Inner-Iter.     Column Row Layer    Maximum-Head-Change  Column Row Layer    Maximum-Flux-Residual          L2-NORM 
          0                 1          36           100    1    40      -0.3651567641E+02      99    1   40        -0.3750000000E+02      0.1912452614E+03
          0                 2          16            32    1     6      -0.1139401403E+01      28    1    4        -0.1241480204E+01      0.3143537751E+01
          0                 3          11            28    1     5      -0.1760812845E+00      34    1    8        -0.5126046965E+00      0.1452602973E+01
          0                 4           3            44    1    12      -0.1226743966E-01      44    1   12        -0.3853655051E-01      0.8304090988E-01
          0                 5           1            26    1     3       0.2529655545E-03      37    1   10         0.5998048444E-03      0.3878184659E-02
          0                 6           1            38    1    40      -0.5697568909E-03      40    1   36        -0.2010068767E-03      0.3155065481E-02
          0                 7           1            42    1    40      -0.2168682507E-03      37    1    9         0.2632521432E-03      0.2784992281E-02
          0                 8           1            42    1    40      -0.3893048038E-03      40    1   36        -0.1755356058E-03      0.2541973904E-02
          0                 9           1            42    1    40      -0.2003446172E-03      42    1   16        -0.1831039123E-03      0.2345696013E-02
          0                10           1            42    1    40      -0.2542490505E-03      44    1   36        -0.1492332340E-03      0.2190883270E-02
                                                   Max.-Head-Change                         Max.-Flux-Residual
  Residual-Control   Outer-Iter.   Inner-Iter.     Column Row Layer    Maximum-Head-Change  Column Row Layer    Maximum-Flux-Residual          L2-NORM 
          0                11           1            42    1    40      -0.1994758910E-03      42    1   16        -0.1566313453E-03      0.2055094853E-02
          0                12           1            42    1    40      -0.1823051376E-03      38    1   16        -0.1371853693E-03      0.1940880880E-02
          0                13           1            42    1    40      -0.2022756450E-03      42    1   16        -0.1298573475E-03      0.1824689035E-02
          0                14           1            42    1    40      -0.1420618410E-03      38    1   16        -0.1343605393E-03      0.1733000121E-02
          0                15           1            42    1    40      -0.1969142947E-03      42    1   16        -0.1097869078E-03      0.1623869891E-02
          0                16           1            40    1    40      -0.1173973790E-03      38    1   16        -0.1249510838E-03      0.1547219472E-02
          0                17           1            40    1    40      -0.1818398341E-03      42    1   16        -0.9471685897E-04      0.1443437720E-02
          0                18           1            40    1    40      -0.1009705850E-03      38    1   16        -0.1116399338E-03      0.1378066473E-02
          0                19           1            40    1    40      -0.1612416016E-03      42    1   16        -0.8283941446E-04      0.1282027616E-02
          0                20           1            40    1    40      -0.8893700747E-04      38    1   16        -0.9738595975E-04      0.1225388857E-02
                                                   Max.-Head-Change                         Max.-Flux-Residual
  Residual-Control   Outer-Iter.   Inner-Iter.     Column Row Layer    Maximum-Head-Change  Column Row Layer    Maximum-Flux-Residual          L2-NORM 
          0                21           1            40    1    40      -0.1399930477E-03      37    1   21        -0.7352456686E-04      0.1139281957E-02
          0                22           1            40    1    40      -0.7938869157E-04      33    1   21        -0.8713468466E-04      0.1089501638E-02
          0                23           1            40    1    40      -0.1207271564E-03      37    1   21        -0.6777251883E-04      0.1013811871E-02
          0                24           1            39    1    39      -0.7143096803E-04      33    1   21        -0.7901024654E-04      0.9695668853E-03
          0                25           1            39    1    39      -0.1041833180E-03      37    1   21        -0.6223382974E-04      0.9035839931E-03
          0                26           1            39    1    39      -0.6454081323E-04      33    1   21        -0.7114393460E-04      0.8639508796E-03
          0                27           1            38    1    40      -0.9015607758E-04      37    1   21        -0.5692696308E-04      0.8065465870E-03
          0                28           1            39    1    39      -0.5847899895E-04      33    1   21        -0.6375055932E-04      0.7708564974E-03
          0                29           1            38    1    40      -0.7823723737E-04      37    1   21        -0.5187580842E-04      0.7208903875E-03
          0                30           1            39    1    39      -0.5310024989E-04      33    1   21        -0.5690819847E-04      0.6886324343E-03
                                                   Max.-Head-Change                         Max.-Flux-Residual
  Residual-Control   Outer-Iter.   Inner-Iter.     Column Row Layer    Maximum-Head-Change  Column Row Layer    Maximum-Flux-Residual          L2-NORM 
          0                31           1            38    1    40      -0.6806209484E-04      37    1   21        -0.4710004848E-04      0.6450818130E-03
          0                32           1            39    1    39      -0.4829875886E-04      33    1   21        -0.5063899937E-04      0.6158479114E-03
          0                33           1            38    1    40      -0.5934811522E-04      37    1   21        -0.4261232777E-04      0.5778265149E-03
          0                34           1            39    1    39      -0.4398912834E-04      33    1   21        -0.4494013635E-04      0.5512806656E-03
          0                35           1            38    1    40      -0.5186672849E-04      37    1   21        -0.3841898794E-04      0.5180265813E-03
          0                36           1            39    1    39      -0.4009999770E-04      33    1   21        -0.3979481608E-04      0.4938867435E-03
          0                37           1            38    1    40      -0.4543039371E-04      37    1   21        -0.3452158705E-04      0.4647460452E-03
          0                38           1            39    1    39      -0.3657181428E-04      33    1   21        -0.3517670444E-04      0.4427723670E-03
          0                39           1            38    1    40      -0.3988239386E-04      37    1   21        -0.3091807719E-04      0.4171845023E-03
          0                40           1            39    1    39      -0.3335561928E-04      33    1   21        -0.3105263164E-04      0.3971709089E-03
                                                   Max.-Head-Change                         Max.-Flux-Residual
  Residual-Control   Outer-Iter.   Inner-Iter.     Column Row Layer    Maximum-Head-Change  Column Row Layer    Maximum-Flux-Residual          L2-NORM 
          0                41           1            38    1    40      -0.3509020444E-04      37    1   21        -0.2760347547E-04      0.3746561864E-03
          0                42           1            39    1    39      -0.3041186525E-04      33    1   21        -0.2738495800E-04      0.3564239213E-03
          0                43           1            38    1    40      -0.3094124804E-04      37    1   21        -0.2457021137E-04      0.3365725169E-03
          0                44           1            39    1    39      -0.2770906746E-04      33    1   21        -0.2413377743E-04      0.3199649740E-03
          0                45           1            38    1    40      -0.2733994391E-04      37    1   21        -0.2180835381E-04      0.3024270880E-03
          0                46           1            39    1    39      -0.2522233839E-04      33    1   21        -0.2125883483E-04      0.2873056159E-03
          0                47           1            38    1    40      -0.2420538250E-04      33    1   27        -0.1950876828E-04      0.2717826498E-03
          0                48           1            36    1    40      -0.2295913334E-04      37    1   27        -0.1881897384E-04      0.2580231679E-03
          0                49           1            38    1    40      -0.2146930525E-04      33    1   27        -0.1784913576E-04      0.2442599069E-03
          0                50           1            36    1    40      -0.2089234042E-04      37    1   27        -0.1706773449E-04      0.2317502291E-03
                                                   Max.-Head-Change                         Max.-Flux-Residual
  Residual-Control   Outer-Iter.   Inner-Iter.     Column Row Layer    Maximum-Head-Change  Column Row Layer    Maximum-Flux-Residual          L2-NORM 
          0                51           1            38    1    40      -0.1907428454E-04      33    1   27        -0.1630176979E-04      0.2195280416E-03
          0                52           1            36    1    40      -0.1898976295E-04      37    1   27        -0.1545489908E-04      0.2081658072E-03
          0                53           1            37    1    37      -0.1697891922E-04      33    1   27        -0.1486028418E-04      0.1972968245E-03
          0                54           1            36    1    40      -0.1723970287E-04      37    1   27        -0.1397310672E-04      0.1869879438E-03
          0                55           1            37    1    37      -0.1514362921E-04      33    1   27        -0.1351925124E-04      0.1773101490E-03
          0                56           1            36    1    40      -0.1563178477E-04      37    1   27        -0.1261475541E-04      0.1679676598E-03
          0                57           1            38    1    38      -0.1352738833E-04      33    1   27        -0.1227380994E-04      0.1593407857E-03
          0                58           1            36    1    40      -0.1415653905E-04      37    1   27        -0.1137213224E-04      0.1508840267E-03
          0                59           1            38    1    38      -0.1210002734E-04      33    1   27        -0.1111943271E-04      0.1431861588E-03
          0                60           1            35    1    39      -0.1280535395E-04      37    1   27        -0.1023756184E-04      0.1355401613E-03
                                                   Max.-Head-Change                         Max.-Flux-Residual
  Residual-Control   Outer-Iter.   Inner-Iter.     Column Row Layer    Maximum-Head-Change  Column Row Layer    Maximum-Flux-Residual          L2-NORM 
          0                61           1            38    1    38      -0.1083587798E-04      33    1   27        -0.1005180440E-04      0.1286649364E-03
          0                62           1            35    1    39      -0.1157431717E-04      37    1   27        -0.9203543101E-05      0.1217599749E-03
          0                63           1            38    1    38      -0.9714122832E-05      33    1   27        -0.9066777494E-05      0.1156142689E-03
          0                64           1            35    1    39      -0.1044972625E-04      37    1   27        -0.8262857307E-05      0.1093855048E-03
          0                65           1            37    1    35      -0.8726528570E-05      33    1   27        -0.8160357140E-05      0.1038875337E-03

    ------------------------------------------------
       NWT REQUIRED           65 OUTER ITERATIONS 
       AND A TOTAL OF        127 INNER ITERATIONS.
    ------------------------------------------------

 OUTPUT CONTROL FOR STRESS PERIOD    1   TIME STEP    1
    PRINT BUDGET
    SAVE HEAD FOR ALL LAYERS
    SAVE DRAWDOWN FOR ALL LAYERS
    SAVE BUDGET
 UBDSV1 SAVING "         STORAGE" ON UNIT  40 AT TIME STEP  1, STRESS PERIOD   1
 UBDSV2 SAVING "   CONSTANT HEAD" ON UNIT  40 AT TIME STEP  1, STRESS PERIOD   1
 UBDSV1 SAVING "FLOW RIGHT FACE " ON UNIT  40 AT TIME STEP  1, STRESS PERIOD   1
 UBDSV1 SAVING "FLOW LOWER FACE " ON UNIT  40 AT TIME STEP  1, STRESS PERIOD   1
 UBDSV4 SAVING "          DRAINS" ON UNIT  40 AT TIME STEP  1, STRESS PERIOD   1
 UBDSV4 SAVING " HEAD DEP BOUNDS" ON UNIT  40 AT TIME STEP  1, STRESS PERIOD   1

 SAVING SATURATED THICKNESS AND FLOW TERMS ON UNIT  333 FOR MT3DMS
 BY THE LINK-MT3DMS PACKAGE V7 AT TIME STEP    1, STRESS PERIOD    1


 HEAD WILL BE SAVED ON UNIT    2 AT END OF TIME STEP    1, STRESS PERIOD    1

 DRAWDOWN WILL BE SAVED ON UNIT   12 AT END OF TIME STEP    1, STRESS PERIOD    1
1
  VOLUMETRIC BUDGET FOR ENTIRE MODEL AT END OF TIME STEP    1, STRESS PERIOD   1
  ------------------------------------------------------------------------------

     CUMULATIVE VOLUMES      L**3       RATES FOR THIS TIME STEP      L**3/T
     ------------------                 ------------------------

           IN:                                      IN:
           ---                                      ---
             STORAGE     =           6.3004               STORAGE     =           6.3004
       CONSTANT HEAD     =           0.0000         CONSTANT HEAD     =           0.0000
              DRAINS     =           0.0000                DRAINS     =           0.0000
     HEAD DEP BOUNDS     =          37.1062       HEAD DEP BOUNDS     =          37.1062

                TOTAL IN =          43.4065                  TOTAL IN =          43.4065

          OUT:                                     OUT:
          ----                                     ----
             STORAGE     =           0.0000               STORAGE     =           0.0000
       CONSTANT HEAD     =           0.0000         CONSTANT HEAD     =           0.0000
              DRAINS     =          43.4092                DRAINS     =          43.4092
     HEAD DEP BOUNDS     =           0.0000       HEAD DEP BOUNDS     =           0.0000

               TOTAL OUT =          43.4092                 TOTAL OUT =          43.4092

                IN - OUT =      -2.6360E-03                  IN - OUT =      -2.6360E-03

     PERCENT DISCREPANCY =          -0.01         PERCENT DISCREPANCY =          -0.01






         TIME SUMMARY AT END OF TIME STEP    1 IN STRESS PERIOD    1
                    SECONDS     MINUTES      HOURS       DAYS        YEARS
                    -----------------------------------------------------------
   TIME STEP LENGTH  86400.      1440.0      24.000      1.0000     2.73785E-03
 STRESS PERIOD TIME  86400.      1440.0      24.000      1.0000     2.73785E-03
         TOTAL TIME  86400.      1440.0      24.000      1.0000     2.73785E-03
1
 
 SOLVING FOR HEAD 
                                                   Max.-Head-Change                         Max.-Flux-Residual
  Residual-Control   Outer-Iter.   Inner-Iter.     Column Row Layer    Maximum-Head-Change  Column Row Layer    Maximum-Flux-Residual          L2-NORM 
          0                 1          16            26    1     3      -0.7124719720E+00      32    1    6        -0.8000109737E-01      0.5365541260E+00
          0                 2           6            25    1     5      -0.1434930450E+00      26    1    5         0.4736496718E+00      0.1563367403E+01
          0                 3           6            37    1     9      -0.1495996245E-01      25    1    6        -0.1764571673E-01      0.4174081297E-01
          0                 4           2            34    1     7       0.1893893314E-02      33    1    9        -0.5831941331E-02      0.1383177727E-01
          0                 5           1            24    1    40      -0.1185592345E-03      33    1    9        -0.6479966978E-03      0.1760257787E-02
          0                 6           1            24    1    40      -0.3783186819E-03      24    1   36        -0.1079615766E-03      0.1320912266E-02
          0                 7           1            30    1    40      -0.7250525044E-04      28    1   10         0.1687986878E-03      0.1065776552E-02
          0                 8           1            30    1    40      -0.2102153108E-03      32    1   36        -0.6791393716E-04      0.9421093927E-03
          0                 9           1            34    1    40      -0.5632567476E-04      28    1   10         0.9507786342E-04      0.8402698542E-03
          0                10           1            36    1    40      -0.1904406428E-03      36    1   36        -0.5231369559E-04      0.7650397338E-03
                                                   Max.-Head-Change                         Max.-Flux-Residual
  Residual-Control   Outer-Iter.   Inner-Iter.     Column Row Layer    Maximum-Head-Change  Column Row Layer    Maximum-Flux-Residual          L2-NORM 
          0                11           1            38    1    40      -0.4381517246E-04      25    1   11        -0.5534059778E-04      0.7009871427E-03
          0                12           1            38    1    40      -0.1247961125E-03      36    1   36        -0.4127180705E-04      0.6316052911E-03
          0                13           1            38    1    40      -0.4191854797E-04      25    1   11        -0.4085909865E-04      0.5971250763E-03
          0                14           1            38    1    40      -0.7303499364E-04      36    1   22        -0.3734798409E-04      0.5434406390E-03
          0                15           1            39    1    39      -0.4109756047E-04      36    1   22        -0.3410849817E-04      0.5179877070E-03
          0                16           1            38    1    40      -0.5338191403E-04      36    1   22        -0.3488753433E-04      0.4831142940E-03
          0                17           1            39    1    39      -0.3916318031E-04      36    1   22        -0.3061531027E-04      0.4601769312E-03
          0                18           1            38    1    40      -0.4300468208E-04      36    1   22        -0.3233112483E-04      0.4334267417E-03
          0                19           1            39    1    39      -0.3644367288E-04      36    1   22        -0.2758154093E-04      0.4120869397E-03
          0                20           1            38    1    40      -0.3616229538E-04      36    1   22        -0.2976411810E-04      0.3900202967E-03
                                                   Max.-Head-Change                         Max.-Flux-Residual
  Residual-Control   Outer-Iter.   Inner-Iter.     Column Row Layer    Maximum-Head-Change  Column Row Layer    Maximum-Flux-Residual          L2-NORM 
          0                21           1            39    1    39      -0.3341626815E-04      36    1   22        -0.2487497244E-04      0.3702075343E-03
          0                22           1            38    1    40      -0.3111208249E-04      36    1   22        -0.2724637332E-04      0.3514344846E-03
          0                23           1            39    1    39      -0.3038561774E-04      36    1   22        -0.2246564017E-04      0.3331689576E-03
          0                24           1            38    1    40      -0.2717107769E-04      36    1   22        -0.2481666684E-04      0.3169246026E-03
          0                25           1            39    1    39      -0.2749904880E-04      37    1   27        -0.2053046344E-04      0.3001884557E-03
          0                26           1            38    1    40      -0.2399384812E-04      36    1   22        -0.2250617894E-04      0.2859605084E-03
          0                27           1            39    1    39      -0.2481654235E-04      37    1   27        -0.1888482106E-04      0.2706994765E-03
          0                28           1            38    1    40      -0.2136331301E-04      36    1   22        -0.2034084415E-04      0.2581155559E-03
          0                29           1            36    1    40      -0.2236374603E-04      37    1   27        -0.1731145881E-04      0.2442521098E-03
          0                30           1            38    1    40      -0.1913237343E-04      36    1   22        -0.1833776420E-04      0.2330369258E-03
                                                   Max.-Head-Change                         Max.-Flux-Residual
  Residual-Control   Outer-Iter.   Inner-Iter.     Column Row Layer    Maximum-Head-Change  Column Row Layer    Maximum-Flux-Residual          L2-NORM 
          0                31           1            36    1    40      -0.2017785556E-04      37    1   27        -0.1582244400E-04      0.2204798611E-03
          0                32           1            38    1    38      -0.1722097991E-04      36    1   22        -0.1650355597E-04      0.2104281435E-03
          0                33           1            36    1    40      -0.1819642828E-04      37    1   27        -0.1442647729E-04      0.1990798099E-03
          0                34           1            38    1    38      -0.1554427872E-04      36    1   22        -0.1483614849E-04      0.1900350675E-03
          0                35           1            36    1    40      -0.1640429819E-04      37    1   27        -0.1312730620E-04      0.1797967822E-03
          0                36           1            38    1    38      -0.1405711588E-04      36    1   22        -0.1332785857E-04      0.1716357149E-03
          0                37           1            36    1    40      -0.1478554867E-04      37    1   27        -0.1192459402E-04      0.1624113601E-03
          0                38           1            38    1    38      -0.1272839662E-04      36    1   22        -0.1196805047E-04      0.1550334407E-03
          0                39           1            36    1    40      -0.1332468424E-04      37    1   27        -0.1081531076E-04      0.1467315568E-03
          0                40           1            37    1    35      -0.1153865313E-04      36    1   22        -0.1074491902E-04      0.1400524252E-03
                                                   Max.-Head-Change                         Max.-Flux-Residual
  Residual-Control   Outer-Iter.   Inner-Iter.     Column Row Layer    Maximum-Head-Change  Column Row Layer    Maximum-Flux-Residual          L2-NORM 
          0                41           1            35    1    39      -0.1200816696E-04      37    1   27        -0.9794930520E-05      0.1325872438E-03
          0                42           1            37    1    35      -0.1048187322E-04      36    1   22        -0.9646529975E-05      0.1265345616E-03
          0                43           1            35    1    39      -0.1082654120E-04      37    1   27        -0.8858283024E-05      0.1198263796E-03
          0                44           1            37    1    35      -0.9524830492E-05      36    1   22        -0.8661366365E-05      0.1143371670E-03
          0                45           1            35    1    39      -0.9760993638E-05      37    1   27        -0.8000097523E-05      0.1083123556E-03
          0                46           1            37    1    35      -0.8656413286E-05      36    1   22        -0.7778580226E-05      0.1033312050E-03

    ------------------------------------------------
       NWT REQUIRED           46 OUTER ITERATIONS 
       AND A TOTAL OF         72 INNER ITERATIONS.
    ------------------------------------------------

 OUTPUT CONTROL FOR STRESS PERIOD    1   TIME STEP    2
    PRINT BUDGET
    SAVE HEAD FOR ALL LAYERS
    SAVE DRAWDOWN FOR ALL LAYERS
    SAVE BUDGET
 UBDSV1 SAVING "         STORAGE" ON UNIT  40 AT TIME STEP  2, STRESS PERIOD   1
 UBDSV2 SAVING "   CONSTANT HEAD" ON UNIT  40 AT TIME STEP  2, STRESS PERIOD   1
 UBDSV1 SAVING "FLOW RIGHT FACE " ON UNIT  40 AT TIME STEP  2, STRESS PERIOD   1
 UBDSV1 SAVING "FLOW LOWER FACE " ON UNIT  40 AT TIME STEP  2, STRESS PERIOD   1
 UBDSV4 SAVING "          DRAINS" ON UNIT  40 AT TIME STEP  2, STRESS PERIOD   1
 UBDSV4 SAVING " HEAD DEP BOUNDS" ON UNIT  40 AT TIME STEP  2, STRESS PERIOD   1

 SAVING SATURATED THICKNESS AND FLOW TERMS ON UNIT  333 FOR MT3DMS
 BY THE LINK-MT3DMS PACKAGE V7 AT TIME STEP    2, STRESS PERIOD    1


 HEAD WILL BE SAVED ON UNIT    2 AT END OF TIME STEP    2, STRESS PERIOD    1

 DRAWDOWN WILL BE SAVED ON UNIT   12 AT END OF TIME STEP    2, STRESS PERIOD    1
1
  VOLUMETRIC BUDGET FOR ENTIRE MODEL AT END OF TIME STEP    2, STRESS PERIOD   1
  ------------------------------------------------------------------------------

     CUMULATIVE VOLUMES      L**3       RATES FOR THIS TIME STEP      L**3/T
     ------------------                 ------------------------

           IN:                                      IN:
           ---                                      ---
             STORAGE     =           7.3664               STORAGE     =           1.0660
       CONSTANT HEAD     =           0.0000         CONSTANT HEAD     =           0.0000
              DRAINS     =           0.0000                DRAINS     =           0.0000
     HEAD DEP BOUNDS     =          76.5138       HEAD DEP BOUNDS     =          39.4076

                TOTAL IN =          83.8802                  TOTAL IN =          40.4736

          OUT:                                     OUT:
          ----                                     ----
[...]
          0                19           1            35    1    37       0.2101173303E-04      38    1   16         0.1877734081E-04      0.2227695839E-03
          0                20           1            36    1    36       0.1689237599E-04      42    1   16         0.1791647489E-04      0.2113823111E-03
                                                   Max.-Head-Change                         Max.-Flux-Residual
  Residual-Control   Outer-Iter.   Inner-Iter.     Column Row Layer    Maximum-Head-Change  Column Row Layer    Maximum-Flux-Residual          L2-NORM 
          0                21           1            35    1    39       0.1872734588E-04      38    1   16         0.1653601848E-04      0.2004281890E-03
          0                22           1            36    1    38       0.1557787709E-04      42    1   16         0.1546203760E-04      0.1902972806E-03
          0                23           1            35    1    39       0.1678998027E-04      38    1   16         0.1451770410E-04      0.1805976133E-03
          0                24           1            37    1    37       0.1422990525E-04      42    1   16         0.1335922977E-04      0.1715209948E-03
          0                25           1            36    1    40       0.1514171158E-04      38    1   16         0.1269667885E-04      0.1628763549E-03
          0                26           1            37    1    37       0.1290113713E-04      42    1   16         0.1155103709E-04      0.1547121098E-03
          0                27           1            36    1    40       0.1372570735E-04      38    1   16         0.1106380364E-04      0.1469749701E-03
          0                28           1            37    1    37       0.1162550937E-04      42    1   16         0.9992093140E-05      0.1396145428E-03
          0                29           1            36    1    40       0.1249712289E-04      38    1   16         0.9612147210E-05      0.1326692078E-03
          0                30           1            38    1    38       0.1042862029E-04      37    1   21         0.8779890862E-05      0.1260239198E-03
                                                   Max.-Head-Change                         Max.-Flux-Residual
  Residual-Control   Outer-Iter.   Inner-Iter.     Column Row Layer    Maximum-Head-Change  Column Row Layer    Maximum-Flux-Residual          L2-NORM 
          0                31           1            36    1    40       0.1142092280E-04      38    1   16         0.8332238139E-05      0.1197756572E-03
          0                32           1            38    1    38       0.9322832554E-05      37    1   21         0.7915693573E-05      0.1137698694E-03
          0                33           1            36    1    40       0.1046961512E-04      33    1   21         0.7226951254E-05      0.1081388268E-03
          0                34           1            38    1    38       0.8310434868E-05      37    1   21         0.7126251234E-05      0.1027064257E-03

    ------------------------------------------------
       NWT REQUIRED           34 OUTER ITERATIONS 
       AND A TOTAL OF         34 INNER ITERATIONS.
    ------------------------------------------------

 OUTPUT CONTROL FOR STRESS PERIOD    3   TIME STEP    7
    PRINT BUDGET
    SAVE HEAD FOR ALL LAYERS
    SAVE DRAWDOWN FOR ALL LAYERS
    SAVE BUDGET
 UBDSV1 SAVING "         STORAGE" ON UNIT  40 AT TIME STEP  7, STRESS PERIOD   3
 UBDSV2 SAVING "   CONSTANT HEAD" ON UNIT  40 AT TIME STEP  7, STRESS PERIOD   3
 UBDSV1 SAVING "FLOW RIGHT FACE " ON UNIT  40 AT TIME STEP  7, STRESS PERIOD   3
 UBDSV1 SAVING "FLOW LOWER FACE " ON UNIT  40 AT TIME STEP  7, STRESS PERIOD   3
 UBDSV4 SAVING "          DRAINS" ON UNIT  40 AT TIME STEP  7, STRESS PERIOD   3
 UBDSV4 SAVING " HEAD DEP BOUNDS" ON UNIT  40 AT TIME STEP  7, STRESS PERIOD   3

 SAVING SATURATED THICKNESS AND FLOW TERMS ON UNIT  333 FOR MT3DMS
 BY THE LINK-MT3DMS PACKAGE V7 AT TIME STEP    7, STRESS PERIOD    3


 HEAD WILL BE SAVED ON UNIT    2 AT END OF TIME STEP    7, STRESS PERIOD    3

 DRAWDOWN WILL BE SAVED ON UNIT   12 AT END OF TIME STEP    7, STRESS PERIOD    3
1
  VOLUMETRIC BUDGET FOR ENTIRE MODEL AT END OF TIME STEP    7, STRESS PERIOD   3
  ------------------------------------------------------------------------------

     CUMULATIVE VOLUMES      L**3       RATES FOR THIS TIME STEP      L**3/T
     ------------------                 ------------------------

           IN:                                      IN:
           ---                                      ---
             STORAGE     =          66.6349               STORAGE     =       1.9310E-09
       CONSTANT HEAD     =           0.0000         CONSTANT HEAD     =           0.0000
              DRAINS     =           0.0000                DRAINS     =           0.0000
     HEAD DEP BOUNDS     =         790.0110       HEAD DEP BOUNDS     =          39.9604

                TOTAL IN =         856.6460                  TOTAL IN =          39.9604

          OUT:                                     OUT:
          ----                                     ----
             STORAGE     =          59.4632               STORAGE     =       3.8785E-03
       CONSTANT HEAD     =           0.0000         CONSTANT HEAD     =           0.0000
              DRAINS     =         784.9548                DRAINS     =          39.9538
     HEAD DEP BOUNDS     =          12.2682       HEAD DEP BOUNDS     =           0.0000

               TOTAL OUT =         856.6862                 TOTAL OUT =          39.9577

                IN - OUT =      -4.0222E-02                  IN - OUT =       2.6245E-03

     PERCENT DISCREPANCY =          -0.00         PERCENT DISCREPANCY =           0.01






         TIME SUMMARY AT END OF TIME STEP    7 IN STRESS PERIOD    3
                    SECONDS     MINUTES      HOURS       DAYS        YEARS
                    -----------------------------------------------------------
   TIME STEP LENGTH  86400.      1440.0      24.000      1.0000     2.73785E-03
 STRESS PERIOD TIME 6.04800E+05  10080.      168.00      7.0000     1.91650E-02
         TOTAL TIME 2.33280E+06  38880.      648.00      27.000     7.39220E-02
1
 
 SOLVING FOR HEAD 
                                                   Max.-Head-Change                         Max.-Flux-Residual
  Residual-Control   Outer-Iter.   Inner-Iter.     Column Row Layer    Maximum-Head-Change  Column Row Layer    Maximum-Flux-Residual          L2-NORM 
          0                 1           1            44    1    12       0.1532408084E-03      44    1   12         0.1718700386E-03      0.6564228353E-03
          0                 2           1            42    1    11       0.1108306298E-03      39    1   13         0.6293404684E-04      0.3387936514E-03
          0                 3           1            36    1     8       0.4741049580E-04      43    1   13         0.3939233687E-04      0.2563523289E-03
          0                 4           1            42    1    11       0.3174171095E-04      40    1   14         0.2932096328E-04      0.2138326383E-03
          0                 5           1            39    1    10       0.4118099293E-04      43    1   13         0.2553375938E-04      0.1933424670E-03
          0                 6           1            42    1    11       0.1684770200E-04      40    1   14         0.2179972725E-04      0.1736594223E-03
          0                 7           1            36    1     8       0.3257456951E-04      43    1   13         0.1685352674E-04      0.1596187740E-03
          0                 8           1            39    1    10       0.1121098964E-04      40    1   14         0.1728114418E-04      0.1466400892E-03
          0                 9           1            36    1     8       0.2452114720E-04      43    1   13         0.1218404401E-04      0.1359127183E-03
          0                10           1            39    1    10       0.8631286565E-05      40    1   14         0.1361488196E-04      0.1264957698E-03
                                                   Max.-Head-Change                         Max.-Flux-Residual
  Residual-Control   Outer-Iter.   Inner-Iter.     Column Row Layer    Maximum-Head-Change  Column Row Layer    Maximum-Flux-Residual          L2-NORM 
          0                11           1            36    1     8       0.1834230680E-04      38    1   16         0.9582395251E-05      0.1180411351E-03
          0                12           1            35    1    19       0.7210055387E-05      43    1   15         0.1116524876E-04      0.1107075652E-03
          0                13           1            36    1     8       0.1406867255E-04      38    1   16         0.8119757922E-05      0.1038412451E-03

    ------------------------------------------------
       NWT REQUIRED           13 OUTER ITERATIONS 
       AND A TOTAL OF         13 INNER ITERATIONS.
    ------------------------------------------------

 OUTPUT CONTROL FOR STRESS PERIOD    3   TIME STEP    8
    PRINT BUDGET
    SAVE HEAD FOR ALL LAYERS
    SAVE DRAWDOWN FOR ALL LAYERS
    SAVE BUDGET
 UBDSV1 SAVING "         STORAGE" ON UNIT  40 AT TIME STEP  8, STRESS PERIOD   3
 UBDSV2 SAVING "   CONSTANT HEAD" ON UNIT  40 AT TIME STEP  8, STRESS PERIOD   3
 UBDSV1 SAVING "FLOW RIGHT FACE " ON UNIT  40 AT TIME STEP  8, STRESS PERIOD   3
 UBDSV1 SAVING "FLOW LOWER FACE " ON UNIT  40 AT TIME STEP  8, STRESS PERIOD   3
 UBDSV4 SAVING "          DRAINS" ON UNIT  40 AT TIME STEP  8, STRESS PERIOD   3
 UBDSV4 SAVING " HEAD DEP BOUNDS" ON UNIT  40 AT TIME STEP  8, STRESS PERIOD   3

 SAVING SATURATED THICKNESS AND FLOW TERMS ON UNIT  333 FOR MT3DMS
 BY THE LINK-MT3DMS PACKAGE V7 AT TIME STEP    8, STRESS PERIOD    3


 HEAD WILL BE SAVED ON UNIT    2 AT END OF TIME STEP    8, STRESS PERIOD    3

 DRAWDOWN WILL BE SAVED ON UNIT   12 AT END OF TIME STEP    8, STRESS PERIOD    3
1
  VOLUMETRIC BUDGET FOR ENTIRE MODEL AT END OF TIME STEP    8, STRESS PERIOD   3
  ------------------------------------------------------------------------------

     CUMULATIVE VOLUMES      L**3       RATES FOR THIS TIME STEP      L**3/T
     ------------------                 ------------------------

           IN:                                      IN:
           ---                                      ---
             STORAGE     =          66.6349               STORAGE     =       2.1156E-09
       CONSTANT HEAD     =           0.0000         CONSTANT HEAD     =           0.0000
              DRAINS     =           0.0000                DRAINS     =           0.0000
     HEAD DEP BOUNDS     =         829.9701       HEAD DEP BOUNDS     =          39.9591

                TOTAL IN =         896.6050                  TOTAL IN =          39.9591

          OUT:                                     OUT:
          ----                                     ----
             STORAGE     =          59.4641               STORAGE     =       8.4765E-04
       CONSTANT HEAD     =           0.0000         CONSTANT HEAD     =           0.0000
              DRAINS     =         824.9105                DRAINS     =          39.9556
     HEAD DEP BOUNDS     =          12.2682       HEAD DEP BOUNDS     =           0.0000

               TOTAL OUT =         896.6427                 TOTAL OUT =          39.9565

                IN - OUT =      -3.7720E-02                  IN - OUT =       2.5787E-03

     PERCENT DISCREPANCY =          -0.00         PERCENT DISCREPANCY =           0.01






         TIME SUMMARY AT END OF TIME STEP    8 IN STRESS PERIOD    3
                    SECONDS     MINUTES      HOURS       DAYS        YEARS
                    -----------------------------------------------------------
   TIME STEP LENGTH  86400.      1440.0      24.000      1.0000     2.73785E-03
 STRESS PERIOD TIME 6.91200E+05  11520.      192.00      8.0000     2.19028E-02
         TOTAL TIME 2.41920E+06  40320.      672.00      28.000     7.66598E-02
1
 
 SOLVING FOR HEAD 
                                                   Max.-Head-Change                         Max.-Flux-Residual
  Residual-Control   Outer-Iter.   Inner-Iter.     Column Row Layer    Maximum-Head-Change  Column Row Layer    Maximum-Flux-Residual          L2-NORM 
          0                 1           1            44    1    12       0.3517887749E-04      44    1   12         0.3724942880E-04      0.1748883373E-03
          0                 2           1            42    1    11       0.3969553412E-04      39    1   13         0.1712771200E-04      0.1303789474E-03
          0                 3           1            34    1    16       0.1661395668E-04      34    1   14         0.1214079606E-04      0.1151981718E-03
          0                 4           1            42    1    11       0.1130608310E-04      40    1   14         0.1006800088E-04      0.1038830987E-03

    ------------------------------------------------
       NWT REQUIRED            4 OUTER ITERATIONS 
       AND A TOTAL OF          4 INNER ITERATIONS.
    ------------------------------------------------

 OUTPUT CONTROL FOR STRESS PERIOD    3   TIME STEP    9
    PRINT BUDGET
    SAVE HEAD FOR ALL LAYERS
    SAVE DRAWDOWN FOR ALL LAYERS
    SAVE BUDGET
 UBDSV1 SAVING "         STORAGE" ON UNIT  40 AT TIME STEP  9, STRESS PERIOD   3
 UBDSV2 SAVING "   CONSTANT HEAD" ON UNIT  40 AT TIME STEP  9, STRESS PERIOD   3
 UBDSV1 SAVING "FLOW RIGHT FACE " ON UNIT  40 AT TIME STEP  9, STRESS PERIOD   3
 UBDSV1 SAVING "FLOW LOWER FACE " ON UNIT  40 AT TIME STEP  9, STRESS PERIOD   3
 UBDSV4 SAVING "          DRAINS" ON UNIT  40 AT TIME STEP  9, STRESS PERIOD   3
 UBDSV4 SAVING " HEAD DEP BOUNDS" ON UNIT  40 AT TIME STEP  9, STRESS PERIOD   3

 SAVING SATURATED THICKNESS AND FLOW TERMS ON UNIT  333 FOR MT3DMS
 BY THE LINK-MT3DMS PACKAGE V7 AT TIME STEP    9, STRESS PERIOD    3


 HEAD WILL BE SAVED ON UNIT    2 AT END OF TIME STEP    9, STRESS PERIOD    3

 DRAWDOWN WILL BE SAVED ON UNIT   12 AT END OF TIME STEP    9, STRESS PERIOD    3
1
  VOLUMETRIC BUDGET FOR ENTIRE MODEL AT END OF TIME STEP    9, STRESS PERIOD   3
  ------------------------------------------------------------------------------

     CUMULATIVE VOLUMES      L**3       RATES FOR THIS TIME STEP      L**3/T
     ------------------                 ------------------------

           IN:                                      IN:
           ---                                      ---
             STORAGE     =          66.6349               STORAGE     =       2.4174E-09
       CONSTANT HEAD     =           0.0000         CONSTANT HEAD     =           0.0000
              DRAINS     =           0.0000                DRAINS     =           0.0000
     HEAD DEP BOUNDS     =         869.9289       HEAD DEP BOUNDS     =          39.9588

                TOTAL IN =         936.5638                  TOTAL IN =          39.9588

          OUT:                                     OUT:
          ----                                     ----
             STORAGE     =          59.4642               STORAGE     =       1.6778E-04
       CONSTANT HEAD     =           0.0000         CONSTANT HEAD     =           0.0000
              DRAINS     =         864.8665                DRAINS     =          39.9560
     HEAD DEP BOUNDS     =          12.2682       HEAD DEP BOUNDS     =           0.0000

               TOTAL OUT =         936.5989                 TOTAL OUT =          39.9562

                IN - OUT =      -3.5034E-02                  IN - OUT =       2.6093E-03

     PERCENT DISCREPANCY =          -0.00         PERCENT DISCREPANCY =           0.01






         TIME SUMMARY AT END OF TIME STEP    9 IN STRESS PERIOD    3
                    SECONDS     MINUTES      HOURS       DAYS        YEARS
                    -----------------------------------------------------------
   TIME STEP LENGTH  86400.      1440.0      24.000      1.0000     2.73785E-03
 STRESS PERIOD TIME 7.77600E+05  12960.      216.00      9.0000     2.46407E-02
         TOTAL TIME 2.50560E+06  41760.      696.00      29.000     7.93977E-02
1
 
 SOLVING FOR HEAD 
                                                   Max.-Head-Change                         Max.-Flux-Residual
  Residual-Control   Outer-Iter.   Inner-Iter.     Column Row Layer    Maximum-Head-Change  Column Row Layer    Maximum-Flux-Residual          L2-NORM 
          0                 1           1            42    1    11       0.1390585791E-04      39    1   11         0.1204920775E-04      0.1040617553E-03

    ------------------------------------------------
       NWT REQUIRED            1 OUTER ITERATIONS 
       AND A TOTAL OF          1 INNER ITERATIONS.
    ------------------------------------------------

 OUTPUT CONTROL FOR STRESS PERIOD    3   TIME STEP   10
    PRINT BUDGET
    SAVE HEAD FOR ALL LAYERS
    SAVE DRAWDOWN FOR ALL LAYERS
    SAVE BUDGET
 UBDSV1 SAVING "         STORAGE" ON UNIT  40 AT TIME STEP 10, STRESS PERIOD   3
 UBDSV2 SAVING "   CONSTANT HEAD" ON UNIT  40 AT TIME STEP 10, STRESS PERIOD   3
 UBDSV1 SAVING "FLOW RIGHT FACE " ON UNIT  40 AT TIME STEP 10, STRESS PERIOD   3
 UBDSV1 SAVING "FLOW LOWER FACE " ON UNIT  40 AT TIME STEP 10, STRESS PERIOD   3
 UBDSV4 SAVING "          DRAINS" ON UNIT  40 AT TIME STEP 10, STRESS PERIOD   3
 UBDSV4 SAVING " HEAD DEP BOUNDS" ON UNIT  40 AT TIME STEP 10, STRESS PERIOD   3

 SAVING SATURATED THICKNESS AND FLOW TERMS ON UNIT  333 FOR MT3DMS
 BY THE LINK-MT3DMS PACKAGE V7 AT TIME STEP   10, STRESS PERIOD    3


 HEAD WILL BE SAVED ON UNIT    2 AT END OF TIME STEP   10, STRESS PERIOD    3

 DRAWDOWN WILL BE SAVED ON UNIT   12 AT END OF TIME STEP   10, STRESS PERIOD    3
1
  VOLUMETRIC BUDGET FOR ENTIRE MODEL AT END OF TIME STEP   10, STRESS PERIOD   3
  ------------------------------------------------------------------------------

     CUMULATIVE VOLUMES      L**3       RATES FOR THIS TIME STEP      L**3/T
     ------------------                 ------------------------

           IN:                                      IN:
           ---                                      ---
             STORAGE     =          66.6349               STORAGE     =       7.0063E-09
       CONSTANT HEAD     =           0.0000         CONSTANT HEAD     =           0.0000
              DRAINS     =           0.0000                DRAINS     =           0.0000
     HEAD DEP BOUNDS     =         909.8876       HEAD DEP BOUNDS     =          39.9587

                TOTAL IN =         976.5226                  TOTAL IN =          39.9587

          OUT:                                     OUT:
          ----                                     ----
             STORAGE     =          59.4642               STORAGE     =       2.4438E-05
       CONSTANT HEAD     =           0.0000         CONSTANT HEAD     =           0.0000
              DRAINS     =         904.8225                DRAINS     =          39.9561
     HEAD DEP BOUNDS     =          12.2682       HEAD DEP BOUNDS     =           0.0000

               TOTAL OUT =         976.5549                 TOTAL OUT =          39.9561

                IN - OUT =      -3.2349E-02                  IN - OUT =       2.6550E-03

     PERCENT DISCREPANCY =          -0.00         PERCENT DISCREPANCY =           0.01






         TIME SUMMARY AT END OF TIME STEP   10 IN STRESS PERIOD    3
                    SECONDS     MINUTES      HOURS       DAYS        YEARS
                    -----------------------------------------------------------
   TIME STEP LENGTH  86400.      1440.0      24.000      1.0000     2.73785E-03
 STRESS PERIOD TIME 8.64000E+05  14400.      240.00      10.000     2.73785E-02
         TOTAL TIME 2.59200E+06  43200.      720.00      30.000     8.21355E-02
1

 Run end date and time (yyyy/mm/dd hh:mm:ss): 2023/05/24 22:47:35
 Elapsed run time:  1.032 Seconds

