                                  MODFLOW-NWT-SWR1 
      U.S. GEOLOGICAL SURVEY MODULAR FINITE-DIFFERENCE GROUNDWATER-FLOW MODEL
                            VERSION 1.2.0 03/01/2020
                    BASED ON MODFLOW-2005 VERSION 1.12.00 02/03/2017

 LIST FILE: CASE5.out
                         UNIT    1

 OPENING CASE5.hed
 FILE TYPE:DATA(BINARY)   UNIT    2   STATUS:UNKNOWN
 FORMAT:BINARY                 ACCESS:SEQUENTIAL          

 OPENING CASE5.drw
 FILE TYPE:DATA(BINARY)   UNIT   12   STATUS:UNKNOWN
 FORMAT:BINARY                 ACCESS:SEQUENTIAL          

 OPENING CASE5.ccf
 FILE TYPE:DATA(BINARY)   UNIT   40   STATUS:UNKNOWN
 FORMAT:BINARY                 ACCESS:SEQUENTIAL          

 OPENING CASE5.lmt6
 FILE TYPE:LMT6   UNIT    3   STATUS:OLD    
 FORMAT:FORMATTED              ACCESS:SEQUENTIAL          

 OPENING CASE5.dis
 FILE TYPE:DIS   UNIT    4   STATUS:OLD    
 FORMAT:FORMATTED              ACCESS:SEQUENTIAL          

 OPENING CASE5.ba6
 FILE TYPE:BAS6   UNIT    7   STATUS:OLD    
 FORMAT:FORMATTED              ACCESS:SEQUENTIAL          

 OPENING CASE5.upw
 FILE TYPE:UPW   UNIT    8   STATUS:OLD    
 FORMAT:FORMATTED              ACCESS:SEQUENTIAL          

 OPENING CASE5.oc
 FILE TYPE:OC   UNIT    9   STATUS:OLD    
 FORMAT:FORMATTED              ACCESS:SEQUENTIAL          

 OPENING CASE5.rch
 FILE TYPE:RCH   UNIT   10   STATUS:OLD    
 FORMAT:FORMATTED              ACCESS:SEQUENTIAL          

 OPENING CASE5.nwt
 FILE TYPE:NWT   UNIT   11   STATUS:OLD    
 FORMAT:FORMATTED              ACCESS:SEQUENTIAL          

 BAS -- BASIC PACKAGE, VERSION 1.2.0, 3/01/2020 INPUT READ FROM UNIT    7
 
 MODFLOW was compiled using mixed precision
 Precision of REAL variables:           6
 Precision of DOUBLE PRECISION variables:          15

 DISCRETIZATION INPUT DATA READ FROM UNIT    4
 # MF2K DISCRETIZATION FILE
 #
 #
 # NLAY NROW NCOL NPER TIMEUNITS LENUNITS
    1 LAYERS       400 ROWS       400 COLUMNS
    1 STRESS PERIOD(S) IN SIMULATION
 MODEL TIME UNIT IS DAYS
 MODEL LENGTH UNIT IS METERS
  Confining bed flag for each layer:
   0

                     DELR =   20.0000    

                     DELC =   20.0000    

 TOP ELEVATION OF LAYER 1 =   200.000    



             MODEL LAYER BOTTOM EL. FOR LAYER   1
 READING ON UNIT    4 WITH FORMAT: (FREE)              


 STRESS PERIOD     LENGTH       TIME STEPS     MULTIPLIER FOR DELT    SS FLAG
 ----------------------------------------------------------------------------
        1         1.000000          1                    1.000         SS

 STEADY-STATE SIMULATION



 
 THE FREE FORMAT OPTION HAS BEEN SELECTED



                     BOUNDARY ARRAY FOR LAYER   1
 READING ON UNIT    7 WITH FORMAT: (FREE)              

 AQUIFER HEAD WILL BE SET TO  -999.00     AT ALL NO-FLOW NODES (IBOUND=0).



                       INITIAL HEAD FOR LAYER   1
 READING ON UNIT    7 WITH FORMAT: (FREE)              

 OUTPUT CONTROL IS SPECIFIED ONLY AT TIME STEPS FOR WHICH OUTPUT IS DESIRED
 COMPACT CELL-BY-CELL BUDGET FILES WILL BE WRITTEN
 AUXILIARY DATA WILL BE SAVED IN CELL-BY-CELL BUDGET FILES
 HEAD PRINT FORMAT CODE IS   0    DRAWDOWN PRINT FORMAT CODE IS   0
 HEADS WILL BE SAVED ON UNIT    2    DRAWDOWNS WILL BE SAVED ON UNIT   12
 #

 NWT1 -- Newton Solver, VERSION 1.2.0, 3/01/2020
         INPUT READ FROM UNIT 11

 COMPLEX OPTION:
 DEFAULT SOLVER INPUT VALUES REFLECT STRONGLY NONLINEAR MODEL
 ***XMD linear solver will be used***
 
   CONVERGENCE CRITERION OF   0.100000E-03 FOR HEAD SOLUTION
   AND A TOLERANCE OF   0.100000E-03 FOR FLOW SOLUTION AND 
   A MAXIMUM OF 10000 OUTER ITERATIONS. 


   D-B-D REDUCTION FACTOR OF    0.850000E+00 AND 
   A D-B-D INCREASE FACTOR OF    0.100000E-04 AND 
   A D-B-D RELAXATION OF    0.000000E+00 AND 
   A MOMENTUM FACTOR OF    0.100000E+00 .


   BACKTRACKING IS ACTIVE 
   THE MAXIMUM NUMBER OF BACKTRACKS IS    50 AND 
   THE BACKTRACKING TOLERANCE IS    0.110000E+01 AND
   THE BACKTRACKING REDUCTION FACTOR IS    0.700000E+00

 XMD -- LINEAR SOLUTION BY XMD PACKAGE VERSION 1.30
     BY MOTOMU IBARAKI, OHIO STATE UNIVERSITY, COLOMBUS, OH
                 INPUT READ FROM UNIT 11
 ACCELERATION METHOD                    (IACL) =         2
 NODE ORDERING FLAG                   (NORDER) =         0
 LEVEL OF FILL                         (LEVEL) =        15
 MAXIMUM NUMBER OF ORTHOGONALIZATIONS  (NORTH) =         1
 INDEX FOR USING REDUCED SYSTEM      (IREDSYS) =         1
 RESID. REDUCTION CONVERGE CRITERION  (RRCTOL) =  0.000000E+00
 INDEX FOR USING DROP TOLERANCE     (IDROPTOL) =         1
 DROP TOLERANCE VALUE                  (EPSRN) =  0.100000E-02
 CONVERGENCE CRITERIA OF           (HCLOSEXMD) =  0.100000E-03
 MAX. NUMBER OF LINEAR ITERATIONS  (MXITERXMD) =       200


 UPW1 -- UPSTREAM WEIGHTING FLOW PACKAGE, VERSION 1.2.0, 3/01/2020
         INPUT READ FROM UNIT  8

 CELL-BY-CELL FLOWS WILL BE SAVED ON UNIT   40
 No named parameters

   LAYER FLAGS:
 LAYER       LAYTYP          LAYAVG    CHANI           LAYVKA           LAYWET
 ---------------------------------------------------------------------------
    1             1             0    -1.000E+00             1             0

   INTERPRETATION OF LAYER FLAGS:
                        INTERBLOCK     HORIZONTAL    DATA IN
         LAYER TYPE   TRANSMISSIVITY   ANISOTROPY   ARRAY VKA   WETTABILITY
 LAYER   (LAYTYP)        (LAYAVG)      (CHANI)     (LAYVKA)       (LAYWET)
 ---------------------------------------------------------------------------
    1   CONVERTIBLE      HARMONIC      VARIABLE    ANISOTROPY  NON-WETTABLE

    HYD. COND. ALONG ROWS =   1.00000     FOR LAYER   1

   HORIZ. ANI. (COL./ROW) =   1.00000     FOR LAYER   1

  HORIZ. TO VERTICAL ANI. =   3.00000     FOR LAYER   1

 RCH -- RECHARGE PACKAGE, VERSION 7, 5/2/2005 INPUT READ FROM UNIT   10
 #
 No named parameters
 OPTION 3 -- RECHARGE TO HIGHEST ACTIVE NODE IN EACH VERTICAL COLUMN
 CELL-BY-CELL FLOWS WILL BE SAVED ON UNIT   40


     0 Recharge parameters

 WARNING READING LMT PACKAGE INPUT DATA:
 [STANDARD] HEADER NO LONGER SUPPORTED; [EXTENDED] HEADER USED INSTEAD.


 ***Link-MT3DMS Package v7***
 OPENING LINK-MT3DMS OUTPUT FILE: CASE5.hff                                                                                                                                                                                               
 ON UNIT NUMBER:   333
 FILE TYPE: UNFORMATTED
 HEADER OPTION: EXTENDED
 ***Link-MT3DMS Package v7***

1
                            STRESS PERIOD NO.    1, LENGTH =   1.000000    
                            -----------------------------------------------

                              NUMBER OF TIME STEPS =     1

                               MULTIPLIER FOR DELT =     1.000

                            INITIAL TIME STEP SIZE =   1.000000    



                           RECHARGE
 READING ON UNIT   10 WITH FORMAT: (FREE)              
 
 SOLVING FOR HEAD 
                                                   Max.-Head-Change                        Max.-Flux-Residual
  Residual-Control   Outer-Iter.   Inner-Iter.     Column Row Layer    Max.-Head-Change    Column Row Layer    Max.-Flux-Residual            L2-New               L2-Old           Solver-Max-Delh
          0                 1          78            13  323     1      -0.1999999999E+02     395  175    1      -0.1679315121E+02      0.1184512435E+03      0.0000000000E+00     -0.1999999999E+02
          1                 1           0            13  323     1      -0.1399999975E+02     368  324    1       0.2055338605E+03      0.6513786033E+04      0.1184512435E+03     -0.1999999999E+02
          2                 1           0            13  323     1      -0.9799999660E+01     377  328    1       0.1467703260E+02      0.4592075409E+03      0.6513786033E+04     -0.1999999999E+02
          0                 2          71           341   72     1      -0.1153676542E+02     173  188    1      -0.1083972381E+03      0.3460035797E+04      0.4592075409E+03     -0.1153676542E+02
          0                 3          82            32  370     1      -0.5408285759E+01     366  273    1       0.7002265735E+02      0.1925354363E+04      0.3460035797E+04     -0.5408285759E+01
          0                 4         200             3  400     1       0.4589368909E+06     366  298    1       0.1603087809E+02      0.5737086708E+03      0.1925354363E+04      0.4589368909E+06
          1                 4           0             3  400     1       0.3212558182E+06       3  398    1      -0.6653272620E+07      0.1422049307E+08      0.5737086708E+03      0.4589368909E+06
          2                 4           0             3  400     1       0.2248790689E+06       3  398    1      -0.4657282149E+07      0.9956678308E+07      0.1422049307E+08      0.4589368909E+06
          3                 4           0             3  400     1       0.1574153455E+06       3  398    1      -0.3260088842E+07      0.6973792504E+07      0.9956678308E+07      0.4589368909E+06
          4                 4           0             3  400     1       0.1101907400E+06       3  398    1      -0.2282053545E+07      0.4886406893E+07      0.6973792504E+07      0.4589368909E+06
                                                   Max.-Head-Change                        Max.-Flux-Residual
  Residual-Control   Outer-Iter.   Inner-Iter.     Column Row Layer    Max.-Head-Change    Column Row Layer    Max.-Flux-Residual            L2-New               L2-Old           Solver-Max-Delh
          5                 4           0             3  400     1       0.7713351669E+05       3  398    1      -0.1597428848E+07      0.3424161835E+07      0.4886406893E+07      0.4589368909E+06
          6                 4           0             3  400     1       0.5399346076E+05       3  398    1      -0.1118191568E+07      0.2397296818E+07      0.3424161835E+07      0.4589368909E+06
          7                 4           0             3  400     1       0.3779542189E+05       3  398    1      -0.7827254785E+06      0.1676195172E+07      0.2397296818E+07      0.4589368909E+06
          8                 4           0             3  400     1       0.2645679487E+05       3  398    1      -0.5478992195E+06      0.1169449999E+07      0.1676195172E+07      0.4589368909E+06
          9                 4           0             3  400     1       0.1851975610E+05       3  398    1      -0.3835208411E+06      0.8149372096E+06      0.1169449999E+07      0.4589368909E+06
         10                 4           0             3  400     1       0.1296382905E+05       3  398    1      -0.2684559781E+06      0.5678537818E+06      0.8149372096E+06      0.4589368909E+06
         11                 4           0             3  400     1       0.9074680178E+04       3  398    1      -0.1879105754E+06      0.3965000839E+06      0.5678537818E+06      0.4589368909E+06
         12                 4           0             3  400     1       0.6352276016E+04       3  398    1      -0.1315287944E+06      0.2774805950E+06      0.3965000839E+06      0.4589368909E+06
         13                 4           0             3  400     1       0.4446593136E+04       3  398    1      -0.9206154844E+05      0.1944737268E+06      0.2774805950E+06      0.4589368909E+06
         14                 4           0             3  400     1       0.3112615142E+04       3  398    1      -0.6443447672E+05      0.1364894213E+06      0.1944737268E+06      0.4589368909E+06
                                                   Max.-Head-Change                        Max.-Flux-Residual
  Residual-Control   Outer-Iter.   Inner-Iter.     Column Row Layer    Max.-Head-Change    Column Row Layer    Max.-Flux-Residual            L2-New               L2-Old           Solver-Max-Delh
         15                 4           0             3  400     1       0.2178830562E+04       3  398    1      -0.4509552684E+05      0.9591686401E+05      0.1364894213E+06      0.4589368909E+06
         16                 4           0             3  400     1       0.1525181368E+04       3  398    1      -0.3155826216E+05      0.6751158070E+05      0.9591686401E+05      0.4589368909E+06
         17                 4           0             3  400     1       0.1067626939E+04       3  398    1      -0.2208217705E+05      0.4759506216E+05      0.6751158070E+05      0.4589368909E+06
         18                 4           0             3  400     1       0.7473388447E+03       3  398    1      -0.1544891758E+05      0.3356500556E+05      0.4759506216E+05      0.4589368909E+06
         19                 4           0             3  400     1       0.5231371824E+03       3  398    1      -0.1080563603E+05      0.2360085033E+05      0.3356500556E+05      0.4589368909E+06
         20                 4           0             3  400     1       0.3661960214E+03       3  398    1      -0.7555339001E+04      0.1645293347E+05      0.2360085033E+05      0.4589368909E+06
         21                 4           0             3  400     1       0.2563372106E+03       3  398    1      -0.5280131120E+04      0.1121991780E+05      0.1645293347E+05      0.4589368909E+06
         22                 4           0             3  400     1       0.1794360444E+03       3  398    1      -0.3687485630E+04      0.7326544663E+04      0.1121991780E+05      0.4589368909E+06
         23                 4           0             3  400     1       0.1256052289E+03       3  398    1      -0.2572633806E+04      0.4431940327E+04      0.7326544663E+04      0.4589368909E+06
         24                 4           0             3  400     1       0.8792365876E+02       3  398    1      -0.1382688460E+04      0.2329232093E+04      0.4431940327E+04      0.4589368909E+06
                                                   Max.-Head-Change                        Max.-Flux-Residual
  Residual-Control   Outer-Iter.   Inner-Iter.     Column Row Layer    Max.-Head-Change    Column Row Layer    Max.-Flux-Residual            L2-New               L2-Old           Solver-Max-Delh
         25                 4           0             3  400     1       0.6154656008E+02       3  398    1      -0.6773192973E+03      0.1292649748E+04      0.2329232093E+04      0.4589368909E+06
         26                 4           0             3  400     1       0.4308259132E+02       3  398    1      -0.3316955784E+03      0.8774951743E+03      0.1292649748E+04      0.4589368909E+06
         27                 4           0             3  400     1       0.3015781341E+02       3  398    1      -0.1623449730E+03      0.7442532692E+03      0.8774951743E+03      0.4589368909E+06
         28                 4           0             3  400     1       0.2111046903E+02       3  398    1      -0.7936668714E+02      0.7086234578E+03      0.7442532692E+03      0.4589368909E+06
         29                 4           0             3  400     1       0.1477732807E+02       3  398    1      -0.3870978393E+02      0.6998421483E+03      0.7086234578E+03      0.4589368909E+06
         30                 4           0             3  400     1       0.1034412947E+02       3  398    1      -0.1878962088E+02      0.6977410178E+03      0.6998421483E+03      0.4589368909E+06
         31                 4           0             3  400     1       0.7240890507E+01     363  295    1       0.1612464632E+02      0.6972490474E+03      0.6977410178E+03      0.4589368909E+06
         32                 4           0             3  400     1       0.5068623269E+01     363  295    1       0.1612476731E+02      0.6971387977E+03      0.6972490474E+03      0.4589368909E+06
         33                 4           0             3  400     1       0.3548036228E+01     363  295    1       0.1612485201E+02      0.6971171576E+03      0.6971387977E+03      0.4589368909E+06
         34                 4           0             3  400     1       0.2483625317E+01     363  295    1       0.1612491130E+02      0.6971150021E+03      0.6971171576E+03      0.4589368909E+06
                                                   Max.-Head-Change                        Max.-Flux-Residual
  Residual-Control   Outer-Iter.   Inner-Iter.     Column Row Layer    Max.-Head-Change    Column Row Layer    Max.-Flux-Residual            L2-New               L2-Old           Solver-Max-Delh
          0                 5         200            18  398     1       0.9838234543E+05     363  295    1       0.1612495280E+02      0.6971164481E+03      0.6971150021E+03      0.9838234543E+05
          1                 5           0            18  398     1       0.6886764063E+05      79    1    1      -0.1018212794E+08      0.1359290328E+08      0.6971164481E+03      0.9838234543E+05
          2                 5           0            18  398     1       0.4820734762E+05      79    1    1      -0.7127489241E+07      0.9515267562E+07      0.1359290328E+08      0.9838234543E+05
          3                 5           0            18  398     1       0.3374514276E+05      79    1    1      -0.4989242188E+07      0.6663057331E+07      0.9515267562E+07      0.9838234543E+05
          4                 5           0            18  398     1       0.2362159953E+05      79    1    1      -0.3492469275E+07      0.4668948067E+07      0.6663057331E+07      0.9838234543E+05
          5                 5           0            18  398     1       0.1653511939E+05      79    1    1      -0.2444728255E+07      0.3272888209E+07      0.4668948067E+07      0.9838234543E+05
          6                 5           0            18  398     1       0.1157458337E+05      79    1    1      -0.1711309553E+07      0.2290914418E+07      0.3272888209E+07      0.9838234543E+05
          7                 5           0            18  398     1       0.8102208224E+04      79    1    1      -0.1197916470E+07      0.1593825649E+07      0.2290914418E+07      0.9838234543E+05
          8                 5           0            18  398     1       0.5671545660E+04      79    1    1      -0.8385413183E+06      0.1103090839E+07      0.1593825649E+07      0.9838234543E+05
          9                 5           0            18  398     1       0.3970081895E+04      79    1    1      -0.5869787164E+06      0.7592703376E+06      0.1103090839E+07      0.9838234543E+05
                                                   Max.-Head-Change                        Max.-Flux-Residual
  Residual-Control   Outer-Iter.   Inner-Iter.     Column Row Layer    Max.-Head-Change    Column Row Layer    Max.-Flux-Residual            L2-New               L2-Old           Solver-Max-Delh
         10                 5           0            18  398     1       0.2779057279E+04      79    1    1      -0.4108848980E+06      0.5247739760E+06      0.7592703376E+06      0.9838234543E+05
         11                 5           0            18  398     1       0.1945340062E+04      79    1    1      -0.2876192273E+06      0.3647070968E+06      0.5247739760E+06      0.9838234543E+05
         12                 5           0            18  398     1       0.1361738020E+04      79    1    1      -0.2013332592E+06      0.2545343149E+06      0.3647070968E+06      0.9838234543E+05
         13                 5           0            18  398     1       0.9532165980E+03      79    1    1      -0.1409330826E+06      0.1775702854E+06      0.2545343149E+06      0.9838234543E+05
         14                 5           0            18  398     1       0.6672516072E+03      79    1    1      -0.9865295971E+05      0.1238557336E+06      0.1775702854E+06      0.9838234543E+05
         15                 5           0            18  398     1       0.4670761171E+03      79    1    1      -0.6905687418E+05      0.8665144872E+05      0.1238557336E+06      0.9838234543E+05
         16                 5           0            18  398     1       0.3269532764E+03      79    1    1      -0.4073011441E+05      0.5269936697E+05      0.8665144872E+05      0.9838234543E+05
         17                 5           0            18  398     1       0.2288672896E+03      79    1    1      -0.1995763444E+05      0.2795273707E+05      0.5269936697E+05      0.9838234543E+05
         18                 5           0            18  398     1       0.1602071000E+03      79    1    1      -0.9779155886E+04      0.1468061022E+05      0.2795273707E+05      0.9838234543E+05
         19                 5           0            18  398     1       0.1121449681E+03      79    1    1      -0.4791726961E+04      0.7278265105E+04      0.1468061022E+05      0.9838234543E+05
                                                   Max.-Head-Change                        Max.-Flux-Residual
  Residual-Control   Outer-Iter.   Inner-Iter.     Column Row Layer    Max.-Head-Change    Column Row Layer    Max.-Flux-Residual            L2-New               L2-Old           Solver-Max-Delh
         20                 5           0            18  398     1       0.7850147632E+02      79    1    1      -0.2347904648E+04      0.3618020255E+04      0.7278265105E+04      0.9838234543E+05
         21                 5           0            18  398     1       0.5495103249E+02      79    1    1      -0.1150444201E+04      0.1874588096E+04      0.3618020255E+04      0.9838234543E+05
         22                 5           0            18  398     1       0.3846572209E+02      79    1    1      -0.5636973125E+03      0.1102269545E+04      0.1874588096E+04      0.9838234543E+05
         23                 5           0            18  398     1       0.2692600500E+02      79    1    1      -0.2761974449E+03      0.8143204940E+03      0.1102269545E+04      0.9838234543E+05
          0                 6         200            50  385     1       0.5789282610E+06      79    1    1      -0.1353267830E+03      0.7285039149E+03      0.8143204940E+03      0.5789282610E+06
          1                 6           0            50  385     1       0.4052497758E+06      87    4    1      -0.5848324147E+08      0.2888904312E+09      0.7285039149E+03      0.5789282610E+06
          2                 6           0            50  385     1       0.2836748382E+06      87    4    1      -0.4093826784E+08      0.2022231756E+09      0.2888904312E+09      0.5789282610E+06
          3                 6           0            50  385     1       0.1985723834E+06      87    4    1      -0.2865678650E+08      0.1415562002E+09      0.2022231756E+09      0.5789282610E+06
          4                 6           0            50  385     1       0.1390006660E+06      87    4    1      -0.2005974972E+08      0.9908935959E+08      0.1415562002E+09      0.5789282610E+06
          5                 6           0            50  385     1       0.9730046454E+05      87    4    1      -0.1404182407E+08      0.6936262899E+08      0.9908935959E+08      0.5789282610E+06
                                                   Max.-Head-Change                        Max.-Flux-Residual
  Residual-Control   Outer-Iter.   Inner-Iter.     Column Row Layer    Max.-Head-Change    Column Row Layer    Max.-Flux-Residual            L2-New               L2-Old           Solver-Max-Delh
          6                 6           0            50  385     1       0.6811032401E+05      87    4    1      -0.9829276186E+07      0.4855398879E+08      0.6936262899E+08      0.5789282610E+06
          7                 6           0            50  385     1       0.4767722600E+05      87    4    1      -0.6880492719E+07      0.3398804216E+08      0.4855398879E+08      0.5789282610E+06
          8                 6           0            50  385     1       0.3337405763E+05      87    4    1      -0.4816344327E+07      0.2379216884E+08      0.3398804216E+08      0.5789282610E+06
          9                 6           0            50  385     1       0.2336183994E+05      87    4    1      -0.3371440478E+07      0.1665546795E+08      0.2379216884E+08      0.5789282610E+06
         10                 6           0            50  385     1       0.1635328768E+05      87    4    1      -0.2360007800E+07      0.1165843032E+08      0.1665546795E+08      0.5789282610E+06
         11                 6           0            50  385     1       0.1144730118E+05      87    4    1      -0.1652004938E+07      0.8159168335E+07      0.1165843032E+08      0.5789282610E+06
         12                 6           0            50  385     1       0.8013110691E+04      87    4    1      -0.1156402943E+07      0.5711164577E+07      0.8159168335E+07      0.5789282610E+06
         13                 6           0            50  385     1       0.5609177388E+04      87    4    1      -0.8094815520E+06      0.3998676955E+07      0.5711164577E+07      0.5789282610E+06
         14                 6           0            50  385     1       0.3926424105E+04      87    4    1      -0.5666365826E+06      0.2801033827E+07      0.3998676955E+07      0.5789282610E+06
         15                 6           0            50  385     1       0.2748496827E+04      87    4    1      -0.3966451070E+06      0.1963179572E+07      0.2801033827E+07      0.5789282610E+06
                                                   Max.-Head-Change                        Max.-Flux-Residual
  Residual-Control   Outer-Iter.   Inner-Iter.     Column Row Layer    Max.-Head-Change    Column Row Layer    Max.-Flux-Residual            L2-New               L2-Old           Solver-Max-Delh
         16                 6           0            50  385     1       0.1923947746E+04      87    4    1      -0.2776510761E+06      0.1377070076E+07      0.1963179572E+07      0.5789282610E+06
         17                 6           0            50  385     1       0.1346763399E+04      87    4    1      -0.1943552558E+06      0.9671575270E+06      0.1377070076E+07      0.5789282610E+06
         18                 6           0            50  385     1       0.9427343634E+03      87    4    1      -0.1360481827E+06      0.6798985300E+06      0.9671575270E+06      0.5789282610E+06
         19                 6           0            50  385     1       0.6599140431E+03      87    4    1      -0.9523323214E+05      0.4789681837E+06      0.6798985300E+06      0.5789282610E+06
         20                 6           0            50  385     1       0.4619398223E+03      87    4    1      -0.6666276727E+05      0.3385533360E+06      0.4789681837E+06      0.5789282610E+06
         21                 6           0            50  385     1       0.3233578701E+03      87    4    1      -0.4666344219E+05      0.2385846076E+06      0.3385533360E+06      0.5789282610E+06
         22                 6           0            50  385     1       0.2263505052E+03      87    4    1      -0.3266391488E+05      0.1637617331E+06      0.2385846076E+06      0.5789282610E+06
         23                 6           0            50  385     1       0.1584453510E+03      87    4    1      -0.2286424592E+05      0.1013676759E+06      0.1637617331E+06      0.5789282610E+06
         24                 6           0            50  385     1       0.1109117438E+03      87    4    1      -0.1162004384E+05      0.5341026027E+05      0.1013676759E+06      0.5789282610E+06
         25                 6           0            50  385     1       0.7763821933E+02      87    4    1      -0.5693710260E+04      0.2617886238E+05      0.5341026027E+05      0.5789282610E+06
                                                   Max.-Head-Change                        Max.-Flux-Residual
  Residual-Control   Outer-Iter.   Inner-Iter.     Column Row Layer    Max.-Head-Change    Column Row Layer    Max.-Flux-Residual            L2-New               L2-Old           Solver-Max-Delh
         26                 6           0            50  385     1       0.5434675260E+02      87    4    1      -0.2789840203E+04      0.1284389507E+05      0.2617886238E+05      0.5789282610E+06
         27                 6           0            50  385     1       0.3804272617E+02      87    4    1      -0.1366967232E+04      0.6326412080E+04      0.1284389507E+05      0.5789282610E+06
         28                 6           0            50  385     1       0.2662990787E+02      87    4    1      -0.6697758154E+03      0.3165663733E+04      0.6326412080E+04      0.5789282610E+06
         29                 6           0            50  385     1       0.1864093519E+02      87    4    1      -0.3281634538E+03      0.1677902582E+04      0.3165663733E+04      0.5789282610E+06
         30                 6           0            50  385     1       0.1304865441E+02      87    4    1      -0.1607813969E+03      0.1040940076E+04      0.1677902582E+04      0.5789282610E+06
         31                 6           0            50  385     1       0.9134057932E+01      79    1    1      -0.1345531206E+03      0.8166074747E+03      0.1040940076E+04      0.5789282610E+06
          0                 7         200            57  383     1       0.1007089937E+07      79    1    1      -0.1349470978E+03      0.7525345928E+03      0.8166074747E+03      0.1007089937E+07
          1                 7           0            57  383     1       0.3021269539E+06     238  108    1      -0.1780626097E+06      0.2147692280E+07      0.7525345928E+03      0.1007089937E+07
          2                 7           0            57  383     1       0.9063808978E+05     238  108    1      -0.1245632381E+06      0.1501727476E+07      0.2147692280E+07      0.1007089937E+07
          3                 7           0            57  383     1       0.2719142801E+05     238  108    1      -0.8711367860E+05      0.1052989610E+07      0.1501727476E+07      0.1007089937E+07
                                                   Max.-Head-Change                        Max.-Flux-Residual
  Residual-Control   Outer-Iter.   Inner-Iter.     Column Row Layer    Max.-Head-Change    Column Row Layer    Max.-Flux-Residual            L2-New               L2-Old           Solver-Max-Delh
          4                 7           0            57  383     1       0.8157428728E+04     238  108    1      -0.6089898741E+05      0.7435670956E+06      0.1052989610E+07      0.1007089937E+07
          5                 7           0            57  383     1       0.2447228716E+04     238  108    1      -0.4254870389E+05      0.4938145588E+06      0.7435670956E+06      0.1007089937E+07
          6                 7           0            57  383     1       0.7341686439E+03     265  112    1      -0.2384790367E+05      0.2544797406E+06      0.4938145588E+06      0.1007089937E+07
          7                 7           0            57  383     1       0.2202506019E+03     265  112    1      -0.1164892642E+05      0.1241670556E+06      0.2544797406E+06      0.1007089937E+07
          8                 7           0            57  383     1       0.6607518320E+02     265  112    1      -0.5682347473E+04      0.6047336478E+05      0.1241670556E+06      0.1007089937E+07
          9                 7           0           261  108     1       0.3357064406E+02     265  112    1      -0.2766367677E+04      0.2937693054E+05      0.6047336478E+05      0.1007089937E+07
         10                 7           0           261  108     1       0.2349945045E+02     265  112    1      -0.1342888278E+04      0.1422294978E+05      0.2937693054E+05      0.1007089937E+07
         11                 7           0           261  108     1       0.1644961503E+02     265  112    1      -0.6491288534E+03      0.6863944823E+04      0.1422294978E+05      0.1007089937E+07
         12                 7           0           261  108     1       0.1151473033E+02     265  112    1      -0.3118085664E+03      0.3321751700E+04      0.6863944823E+04      0.1007089937E+07
         13                 7           0           261  108     1       0.8060311091E+01     265  112    1      -0.1483569052E+03      0.1665106974E+04      0.3321751700E+04      0.1007089937E+07
                                                   Max.-Head-Change                        Max.-Flux-Residual
  Residual-Control   Outer-Iter.   Inner-Iter.     Column Row Layer    Max.-Head-Change    Column Row Layer    Max.-Flux-Residual            L2-New               L2-Old           Solver-Max-Delh
         14                 7           0           261  108     1       0.5642217668E+01      79    1    1      -0.1338359696E+03      0.9621152344E+03      0.1665106974E+04      0.1007089937E+07
          0                 8          84            85  238     1       0.5861094651E+05      79    1    1      -0.1341688790E+03      0.7272930350E+03      0.9621152344E+03      0.5861094651E+05
          1                 8           0            85  238     1       0.4102766186E+05      85  238    1      -0.2104616619E+08      0.5858724589E+08      0.7272930350E+03      0.5861094651E+05
          2                 8           0            85  238     1       0.2871936281E+05      85  238    1      -0.1473231576E+08      0.4101368904E+08      0.5858724589E+08      0.5861094651E+05
          3                 8           0            85  238     1       0.2010355363E+05      85  238    1      -0.1031262054E+08      0.2871193249E+08      0.4101368904E+08      0.5861094651E+05
          4                 8           0            85  238     1       0.1407248730E+05      85  238    1      -0.7218833941E+07      0.2010020932E+08      0.2871193249E+08      0.5861094651E+05
          5                 8           0            85  238     1       0.9850740941E+04      85  238    1      -0.5053183356E+07      0.1407122330E+08      0.2010020932E+08      0.5861094651E+05
          6                 8           0            85  238     1       0.6895518542E+04      85  238    1      -0.3537227972E+07      0.9850584457E+07      0.1407122330E+08      0.5861094651E+05
          7                 8           0            85  238     1       0.4826862897E+04      85  238    1      -0.2476059222E+07      0.6895415225E+07      0.9850584457E+07      0.5861094651E+05
          8                 8           0            85  238     1       0.3378803970E+04      85  238    1      -0.1733241109E+07      0.4825171867E+07      0.6895415225E+07      0.5861094651E+05
                                                   Max.-Head-Change                        Max.-Flux-Residual
  Residual-Control   Outer-Iter.   Inner-Iter.     Column Row Layer    Max.-Head-Change    Column Row Layer    Max.-Flux-Residual            L2-New               L2-Old           Solver-Max-Delh
          9                 8           0            85  238     1       0.2365162739E+04      85  238    1      -0.1213268439E+07      0.3373162845E+07      0.4825171867E+07      0.5861094651E+05
         10                 8           0            85  238     1       0.1655613889E+04      85  238    1      -0.8492875764E+06      0.2354740843E+07      0.3373162845E+07      0.5861094651E+05
         11                 8           0            85  238     1       0.1158929703E+04      85  238    1      -0.5945009768E+06      0.1637010241E+07      0.2354740843E+07      0.5861094651E+05
         12                 8           0            85  238     1       0.8112507780E+03      85  238    1      -0.4161503601E+06      0.1136135234E+07      0.1637010241E+07      0.5861094651E+05
         13                 8           0            85  238     1       0.5678755349E+03      85  238    1      -0.2913049305E+06      0.7855485178E+06      0.1136135234E+07      0.5861094651E+05
         14                 8           0            85  238     1       0.3975128677E+03      85  238    1      -0.2039131313E+06      0.5368662645E+06      0.7855485178E+06      0.5861094651E+05
         15                 8           0            85  238     1       0.2782590026E+03      85  238    1      -0.1427388729E+06      0.3581200254E+06      0.5368662645E+06      0.5861094651E+05
         16                 8           0            85  238     1       0.1947812985E+03      85  238    1      -0.9991689273E+05      0.2385185873E+06      0.3581200254E+06      0.5861094651E+05
         17                 8           0            85  238     1       0.1363469066E+03      85  238    1      -0.6994150713E+05      0.1529963472E+06      0.2385185873E+06      0.5861094651E+05
         18                 8           0            85  238     1       0.9544283303E+02      85  238    1      -0.4374850229E+05      0.8386460860E+05      0.1529963472E+06      0.5861094651E+05
                                                   Max.-Head-Change                        Max.-Flux-Residual
  Residual-Control   Outer-Iter.   Inner-Iter.     Column Row Layer    Max.-Head-Change    Column Row Layer    Max.-Flux-Residual            L2-New               L2-Old           Solver-Max-Delh
         19                 8           0            85  238     1       0.6680998198E+02      85  238    1      -0.2143656222E+05      0.4109796911E+05      0.8386460860E+05      0.5861094651E+05
         20                 8           0            85  238     1       0.4676698659E+02      85  238    1      -0.1050377291E+05      0.2014755188E+05      0.4109796911E+05      0.5861094651E+05
         21                 8           0            85  238     1       0.3273689006E+02      85  238    1      -0.5146749000E+04      0.9892293083E+04      0.2014755188E+05      0.5861094651E+05
         22                 8           0            85  238     1       0.2291582265E+02      85  238    1      -0.2521837237E+04      0.4888194861E+04      0.9892293083E+04      0.5861094651E+05
         23                 8           0            85  238     1       0.1604107558E+02      85  238    1      -0.1235651423E+04      0.2477354497E+04      0.4888194861E+04      0.5861094651E+05
         24                 8           0            85  238     1       0.1122875272E+02      85  238    1      -0.6054350300E+03      0.1369054503E+04      0.2477354497E+04      0.5861094651E+05
         25                 8           0            85  238     1       0.7860126767E+01      85  238    1      -0.2966392517E+03      0.9224893863E+03      0.1369054503E+04      0.5861094651E+05
          0                 9         200             3  400     1       0.5589442205E+09      85  238    1      -0.1453364962E+03      0.7780668160E+03      0.9224893863E+03      0.5589442205E+09
          1                 9           0             3  400     1       0.3912609477E+09       3  398    1      -0.2031939919E+12      0.4361695025E+12      0.7780668160E+03      0.5589442205E+09
          2                 9           0             3  400     1       0.2738826587E+09       3  398    1      -0.1422357919E+12      0.3053186465E+12      0.4361695025E+12      0.5589442205E+09
                                                   Max.-Head-Change                        Max.-Flux-Residual
  Residual-Control   Outer-Iter.   Inner-Iter.     Column Row Layer    Max.-Head-Change    Column Row Layer    Max.-Flux-Residual            L2-New               L2-Old           Solver-Max-Delh
          3                 9           0             3  400     1       0.1917178578E+09       3  398    1      -0.9956505260E+11      0.2137230489E+12      0.3053186465E+12      0.5589442205E+09
          4                 9           0             3  400     1       0.1342024982E+09       3  398    1      -0.6969553562E+11      0.1496061316E+12      0.2137230489E+12      0.5589442205E+09
          5                 9           0             3  400     1       0.9394174714E+08       3  398    1      -0.4878687409E+11      0.1047242903E+12      0.1496061316E+12      0.5589442205E+09
          6                 9           0             3  400     1       0.6575922188E+08       3  398    1      -0.3415081126E+11      0.7330700195E+11      0.1047242903E+12      0.5589442205E+09
          7                 9           0             3  400     1       0.4603145453E+08       3  398    1      -0.2390556746E+11      0.5131490047E+11      0.7330700195E+11      0.5589442205E+09
          8                 9           0             3  400     1       0.3222201762E+08       3  398    1      -0.1673389692E+11      0.3592042970E+11      0.5131490047E+11      0.5589442205E+09
          9                 9           0             3  400     1       0.2255541195E+08       3  398    1      -0.1171372763E+11      0.2514430033E+11      0.3592042970E+11      0.5589442205E+09
         10                 9           0             3  400     1       0.1578878810E+08       3  398    1      -0.8199609188E+10      0.1760100991E+11      0.2514430033E+11      0.5589442205E+09
         11                 9           0             3  400     1       0.1105215148E+08       3  398    1      -0.5739726319E+10      0.1232070670E+11      0.1760100991E+11      0.5589442205E+09
         12                 9           0             3  400     1       0.7736505904E+07       3  398    1      -0.4017808340E+10      0.8624494548E+10      0.1232070670E+11      0.5589442205E+09
                                                   Max.-Head-Change                        Max.-Flux-Residual
  Residual-Control   Outer-Iter.   Inner-Iter.     Column Row Layer    Max.-Head-Change    Column Row Layer    Max.-Flux-Residual            L2-New               L2-Old           Solver-Max-Delh
         13                 9           0             3  400     1       0.5415554041E+07       3  398    1      -0.2812465775E+10      0.6037146094E+10      0.8624494548E+10      0.5589442205E+09
         14                 9           0             3  400     1       0.3790887764E+07       3  398    1      -0.1968725994E+10      0.4226002182E+10      0.6037146094E+10      0.5589442205E+09
         15                 9           0             3  400     1       0.2653621390E+07       3  398    1      -0.1378108157E+10      0.2958201454E+10      0.4226002182E+10      0.5589442205E+09
         16                 9           0             3  400     1       0.1857534941E+07       3  398    1      -0.9646756789E+09      0.2070741119E+10      0.2958201454E+10      0.5589442205E+09
         17                 9           0             3  400     1       0.1300274437E+07       3  398    1      -0.6752729488E+09      0.1449518826E+10      0.2070741119E+10      0.5589442205E+09
         18                 9           0             3  400     1       0.9101920901E+06       3  398    1      -0.4726910411E+09      0.1014663176E+10      0.1449518826E+10      0.5589442205E+09
         19                 9           0             3  400     1       0.6371344522E+06       3  398    1      -0.3308837082E+09      0.7102645520E+09      0.1014663176E+10      0.5589442205E+09
         20                 9           0             3  400     1       0.4459941090E+06       3  398    1      -0.2316185769E+09      0.4971861313E+09      0.7102645520E+09      0.5589442205E+09
         21                 9           0             3  400     1       0.3121958710E+06       3  398    1      -0.1621329861E+09      0.3480309138E+09      0.4971861313E+09      0.5589442205E+09
         22                 9           0             3  400     1       0.2185371060E+06       3  398    1      -0.1134930734E+09      0.2436219243E+09      0.3480309138E+09      0.5589442205E+09
                                                   Max.-Head-Change                        Max.-Flux-Residual
  Residual-Control   Outer-Iter.   Inner-Iter.     Column Row Layer    Max.-Head-Change    Column Row Layer    Max.-Flux-Residual            L2-New               L2-Old           Solver-Max-Delh
         23                 9           0             3  400     1       0.1529759716E+06       3  398    1      -0.7944513510E+08      0.1705364892E+09      0.2436219243E+09      0.5589442205E+09
         24                 9           0             3  400     1       0.1070831783E+06       3  398    1      -0.5561157868E+08      0.1193772087E+09      0.1705364892E+09      0.5589442205E+09
         25                 9           0             3  400     1       0.7495822351E+05       3  398    1      -0.3892808948E+08      0.8356661716E+08      0.1193772087E+09      0.5589442205E+09
         26                 9           0             3  400     1       0.5247075557E+05       3  398    1      -0.2724964723E+08      0.5849787305E+08      0.8356661716E+08      0.5589442205E+09
         27                 9           0             3  400     1       0.3672952827E+05       3  398    1      -0.1907473780E+08      0.4094910321E+08      0.5849787305E+08      0.5589442205E+09
         28                 9           0             3  400     1       0.2571066935E+05       3  398    1      -0.1335230130E+08      0.2866771221E+08      0.4094910321E+08      0.5589442205E+09
         29                 9           0             3  400     1       0.1799746824E+05       3  398    1      -0.9346595810E+07      0.2007245231E+08      0.2866771221E+08      0.5589442205E+09
         30                 9           0             3  400     1       0.1259822755E+05       3  398    1      -0.6542602018E+07      0.1405317467E+08      0.2007245231E+08      0.5589442205E+09
         31                 9           0             3  400     1       0.8818759137E+04       3  398    1      -0.4579806397E+07      0.9838413009E+07      0.1405317467E+08      0.5589442205E+09
         32                 9           0             3  400     1       0.6173131291E+04       3  398    1      -0.3205849485E+07      0.6887461424E+07      0.9838413009E+07      0.5589442205E+09
                                                   Max.-Head-Change                        Max.-Flux-Residual
  Residual-Control   Outer-Iter.   Inner-Iter.     Column Row Layer    Max.-Head-Change    Column Row Layer    Max.-Flux-Residual            L2-New               L2-Old           Solver-Max-Delh
         33                 9           0             3  400     1       0.4321191830E+04       3  398    1      -0.2244079664E+07      0.4821483342E+07      0.6887461424E+07      0.5589442205E+09
         34                 9           0             3  400     1       0.3024834229E+04       3  398    1      -0.1570840800E+07      0.3375179738E+07      0.4821483342E+07      0.5589442205E+09
         35                 9           0             3  400     1       0.2117383925E+04       3  398    1      -0.1099573604E+07      0.2362707465E+07      0.3375179738E+07      0.5589442205E+09
         36                 9           0             3  400     1       0.1482168722E+04       3  398    1      -0.7696865717E+06      0.1653922812E+07      0.2362707465E+07      0.5589442205E+09
         37                 9           0             3  400     1       0.1037518088E+04       3  398    1      -0.5387656533E+06      0.1157700670E+07      0.1653922812E+07      0.5589442205E+09
         38                 9           0             3  400     1       0.7262626490E+03       3  398    1      -0.3771210131E+06      0.8103804066E+06      0.1157700670E+07      0.5589442205E+09
         39                 9           0             3  400     1       0.5083838457E+03       3  398    1      -0.2639697669E+06      0.5672961103E+06      0.8103804066E+06      0.5589442205E+09
         40                 9           0             3  400     1       0.3558686859E+03       3  398    1      -0.1847638960E+06      0.3969008563E+06      0.5672961103E+06      0.5589442205E+09
         41                 9           0             3  400     1       0.2491080759E+03       3  398    1      -0.1293197872E+06      0.2776534670E+06      0.3969008563E+06      0.5589442205E+09
         42                 9           0             3  400     1       0.1743756501E+03       3  398    1      -0.9050891178E+05      0.1941587891E+06      0.2776534670E+06      0.5589442205E+09
                                                   Max.-Head-Change                        Max.-Flux-Residual
  Residual-Control   Outer-Iter.   Inner-Iter.     Column Row Layer    Max.-Head-Change    Column Row Layer    Max.-Flux-Residual            L2-New               L2-Old           Solver-Max-Delh
         43                 9           0             3  400     1       0.1220629530E+03       4  399    1      -0.6014788130E+05      0.1164185809E+06      0.1941587891E+06      0.5589442205E+09
         44                 9           0             3  400     1       0.8544406566E+02       4  399    1      -0.3096509255E+05      0.5862587333E+05      0.1164185809E+06      0.5589442205E+09
         45                 9           0             3  400     1       0.5981084495E+02       4  399    1      -0.1516041417E+05      0.2871300380E+05      0.5862587333E+05      0.5589442205E+09
         46                 9           0             3  400     1       0.4186759075E+02       4  399    1      -0.7419866173E+04      0.1407057128E+05      0.2871300380E+05      0.5589442205E+09
         47                 9           0             3  400     1       0.2930731303E+02       4  399    1      -0.3629618693E+04      0.6917341864E+04      0.1407057128E+05      0.5589442205E+09
         48                 9           0             3  400     1       0.2051511877E+02       4  399    1      -0.1774232126E+04      0.3449516097E+04      0.6917341864E+04      0.5589442205E+09
         49                 9           0             3  400     1       0.1436058289E+02       4  399    1      -0.8663769830E+03      0.1816681314E+04      0.3449516097E+04      0.5589442205E+09
         50                 9           0             3  400     1       0.1005240785E+02       4  399    1      -0.4224269491E+03      0.1116688311E+04      0.1816681314E+04      0.5589442205E+09
          0                10         200             9  399     1       0.6656715794E+12       4  399    1      -0.2055207196E+03      0.8705298027E+03      0.1116688311E+04      0.6656715794E+12
          1                10           0             9  399     1       0.1997014817E+12     338  150    1      -0.2146627801E+08      0.3607338489E+08      0.8705298027E+03      0.6656715794E+12
                                                   Max.-Head-Change                        Max.-Flux-Residual
  Residual-Control   Outer-Iter.   Inner-Iter.     Column Row Layer    Max.-Head-Change    Column Row Layer    Max.-Flux-Residual            L2-New               L2-Old           Solver-Max-Delh
          2                10           0             9  399     1       0.5991044690E+11     338  150    1      -0.1502639432E+08      0.2524922867E+08      0.3607338489E+08      0.6656715794E+12
          3                10           0             9  399     1       0.1797313479E+11     338  150    1      -0.1051847581E+08      0.1767196051E+08      0.2524922867E+08      0.6656715794E+12
          4                10           0             9  399     1       0.5391940650E+10     338  150    1      -0.7362932906E+07      0.1236909231E+08      0.1767196051E+08      0.6656715794E+12
          5                10           0             9  399     1       0.1617582259E+10     338  150    1      -0.5154052912E+07      0.8657202140E+07      0.1236909231E+08      0.6656715794E+12
          6                10           0             9  399     1       0.4852746971E+09     338  150    1      -0.3607836943E+07      0.6059273579E+07      0.8657202140E+07      0.6656715794E+12
          7                10           0             9  399     1       0.1455824149E+09     338  150    1      -0.2525485783E+07      0.4243397075E+07      0.6059273579E+07      0.6656715794E+12
          8                10           0             9  399     1       0.4367472621E+08     338  150    1      -0.1767839984E+07      0.2972208038E+07      0.4243397075E+07      0.6656715794E+12
          9                10           0             9  399     1       0.1310241838E+08     338  150    1      -0.1237487933E+07      0.2079772807E+07      0.2972208038E+07      0.6656715794E+12
         10                10           0             9  399     1       0.3930725671E+07     338  150    1      -0.8662415044E+06      0.1449630779E+07      0.2079772807E+07      0.6656715794E+12
         11                10           0             9  399     1       0.1179217748E+07     338  150    1      -0.6063690085E+06      0.1009346895E+07      0.1449630779E+07      0.6656715794E+12
                                                   Max.-Head-Change                        Max.-Flux-Residual
  Residual-Control   Outer-Iter.   Inner-Iter.     Column Row Layer    Max.-Head-Change    Column Row Layer    Max.-Flux-Residual            L2-New               L2-Old           Solver-Max-Delh
         12                10           0             9  399     1       0.3537653385E+06     338  150    1      -0.4244582645E+06      0.7003455956E+06      0.1009346895E+07      0.6656715794E+12
         13                10           0             9  399     1       0.1061296058E+06     338  150    1      -0.2971207459E+06      0.4864441844E+06      0.7003455956E+06      0.6656715794E+12
         14                10           0             9  399     1       0.3183888300E+05     338  150    1      -0.2079844844E+06      0.3332377513E+06      0.4864441844E+06      0.6656715794E+12
         15                10           0             9  399     1       0.9551665278E+04     338  150    1      -0.1455891024E+06      0.2217872658E+06      0.3332377513E+06      0.6656715794E+12
         16                10           0             9  399     1       0.2865499697E+04     338  150    1      -0.8844828800E+05      0.1303103038E+06      0.2217872658E+06      0.6656715794E+12
         17                10           0             9  399     1       0.8596499434E+03     338  150    1      -0.4333962817E+05      0.6385693949E+05      0.1303103038E+06      0.6656715794E+12
         18                10           0             9  399     1       0.2578949933E+03     338  150    1      -0.2123639505E+05      0.3129833331E+05      0.6385693949E+05      0.6656715794E+12
         19                10           0             9  399     1       0.7736850105E+02     338  150    1      -0.1040581780E+05      0.1535211059E+05      0.3129833331E+05      0.6656715794E+12
         20                10           0           338  150     1       0.2511779368E+02     338  150    1      -0.5098839752E+04      0.7553880888E+04      0.1535211059E+05      0.6656715794E+12
         21                10           0           338  150     1       0.1758245527E+02     338  150    1      -0.2498423837E+04      0.3763783349E+04      0.7553880888E+04      0.6656715794E+12
                                                   Max.-Head-Change                        Max.-Flux-Residual
  Residual-Control   Outer-Iter.   Inner-Iter.     Column Row Layer    Max.-Head-Change    Column Row Layer    Max.-Flux-Residual            L2-New               L2-Old           Solver-Max-Delh
         22                10           0           338  150     1       0.1230771848E+02     338  150    1      -0.1224222349E+04      0.1965700779E+04      0.3763783349E+04      0.6656715794E+12
         23                10           0           338  150     1       0.8615402791E+01     338  150    1      -0.5998652274E+03      0.1178614338E+04      0.1965700779E+04      0.6656715794E+12
          0                11         200            66    4     1       0.5736873725E+10     338  150    1      -0.2939313592E+03      0.8912538142E+03      0.1178614338E+04      0.5736873725E+10
          1                11           0            66    4     1       0.4015811539E+10      84   11    1      -0.2010074538E+13      0.9711124974E+13      0.8912538142E+03      0.5736873725E+10
          2                11           0            66    4     1       0.2811068030E+10      84   11    1      -0.1407052152E+13      0.6797787366E+13      0.9711124974E+13      0.5736873725E+10
          3                11           0            66    4     1       0.1967747587E+10      84   11    1      -0.9849364899E+12      0.4758451075E+13      0.6797787366E+13      0.5736873725E+10
          4                11           0            66    4     1       0.1377423288E+10      84   11    1      -0.6894555312E+12      0.3330915696E+13      0.4758451075E+13      0.5736873725E+10
          5                11           0            66    4     1       0.9641962849E+09      84   11    1      -0.4826188636E+12      0.2331640947E+13      0.3330915696E+13      0.5736873725E+10
          6                11           0            66    4     1       0.6749373879E+09      84   11    1      -0.3378331988E+12      0.1632148635E+13      0.2331640947E+13      0.5736873725E+10
          7                11           0            66    4     1       0.4724561635E+09      84   11    1      -0.2364832351E+12      0.1142504025E+13      0.1632148635E+13      0.5736873725E+10
                                                   Max.-Head-Change                        Max.-Flux-Residual
  Residual-Control   Outer-Iter.   Inner-Iter.     Column Row Layer    Max.-Head-Change    Column Row Layer    Max.-Flux-Residual            L2-New               L2-Old           Solver-Max-Delh
          8                11           0            66    4     1       0.3307193088E+09      84   11    1      -0.1655382617E+12      0.7997528038E+12      0.1142504025E+13      0.5736873725E+10
          9                11           0            66    4     1       0.2315035122E+09      84   11    1      -0.1158767812E+12      0.5598269530E+12      0.7997528038E+12      0.5736873725E+10
         10                11           0            66    4     1       0.1620524558E+09      84   11    1      -0.8111374546E+11      0.3918788603E+12      0.5598269530E+12      0.5736873725E+10
         11                11           0            66    4     1       0.1134367171E+09      84   11    1      -0.5677962085E+11      0.2743151974E+12      0.3918788603E+12      0.5736873725E+10
         12                11           0            66    4     1       0.7940570064E+08      84   11    1      -0.3974573390E+11      0.1920206348E+12      0.2743151974E+12      0.5736873725E+10
         13                11           0            66    4     1       0.5558398950E+08      84   11    1      -0.2782201325E+11      0.1344144420E+12      0.1920206348E+12      0.5736873725E+10
         14                11           0            66    4     1       0.3890879199E+08      84   11    1      -0.1947540893E+11      0.9409010767E+11      0.1344144420E+12      0.5736873725E+10
         15                11           0            66    4     1       0.2723615393E+08      84   11    1      -0.1363278600E+11      0.6586307497E+11      0.9409010767E+11      0.5736873725E+10
         16                11           0            66    4     1       0.1906530742E+08      84   11    1      -0.9542950028E+10      0.4610415370E+11      0.6586307497E+11      0.5736873725E+10
         17                11           0            66    4     1       0.1334571497E+08      84   11    1      -0.6680064893E+10      0.3227291163E+11      0.4610415370E+11      0.5736873725E+10
                                                   Max.-Head-Change                        Max.-Flux-Residual
  Residual-Control   Outer-Iter.   Inner-Iter.     Column Row Layer    Max.-Head-Change    Column Row Layer    Max.-Flux-Residual            L2-New               L2-Old           Solver-Max-Delh
         18                11           0            66    4     1       0.9342000320E+07      84   11    1      -0.4676045333E+10      0.2259104273E+11      0.3227291163E+11      0.5736873725E+10
         19                11           0            66    4     1       0.6539400113E+07      84   11    1      -0.3273231665E+10      0.1581373271E+11      0.2259104273E+11      0.5736873725E+10
         20                11           0            66    4     1       0.4577580001E+07      84   11    1      -0.2291262114E+10      0.1106961416E+11      0.1581373271E+11      0.5736873725E+10
         21                11           0            66    4     1       0.3204305946E+07      84   11    1      -0.1603883440E+10      0.7748730435E+10      0.1106961416E+11      0.5736873725E+10
         22                11           0            66    4     1       0.2243014124E+07      84   11    1      -0.1122718376E+10      0.5424111696E+10      0.7748730435E+10      0.5736873725E+10
         23                11           0            66    4     1       0.1570109860E+07      84   11    1      -0.7859028372E+09      0.3796878494E+10      0.5424111696E+10      0.5736873725E+10
         24                11           0            66    4     1       0.1099076883E+07      84   11    1      -0.5501319640E+09      0.2657815036E+10      0.3796878494E+10      0.5736873725E+10
         25                11           0            66    4     1       0.7693538052E+06      84   11    1      -0.3850923556E+09      0.1860470675E+10      0.2657815036E+10      0.5736873725E+10
         26                11           0            66    4     1       0.5385476545E+06      84   11    1      -0.2695646317E+09      0.1302329659E+10      0.1860470675E+10      0.5736873725E+10
         27                11           0            66    4     1       0.3769833517E+06      84   11    1      -0.1886952264E+09      0.9116310259E+09      0.1302329659E+10      0.5736873725E+10
                                                   Max.-Head-Change                        Max.-Flux-Residual
  Residual-Control   Outer-Iter.   Inner-Iter.     Column Row Layer    Max.-Head-Change    Column Row Layer    Max.-Flux-Residual            L2-New               L2-Old           Solver-Max-Delh
         28                11           0            66    4     1       0.2638883417E+06      84   11    1      -0.1320866436E+09      0.6381420139E+09      0.9116310259E+09      0.5736873725E+10
         29                11           0            66    4     1       0.1847218361E+06      84   11    1      -0.9246063630E+08      0.4466998512E+09      0.6381420139E+09      0.5736873725E+10
         30                11           0            66    4     1       0.1293052830E+06      84   11    1      -0.6472243168E+08      0.3126909118E+09      0.4466998512E+09      0.5736873725E+10
         31                11           0            66    4     1       0.9051369658E+05      84   11    1      -0.4530568878E+08      0.2188843156E+09      0.3126909118E+09      0.5736873725E+10
         32                11           0            66    4     1       0.6335958653E+05      84   11    1      -0.3171396898E+08      0.1532192340E+09      0.2188843156E+09      0.5736873725E+10
         33                11           0            66    4     1       0.4435170982E+05      84   11    1      -0.2219976528E+08      0.1072535458E+09      0.1532192340E+09      0.5736873725E+10
         34                11           0            66    4     1       0.3104619634E+05      84   11    1      -0.1553982280E+08      0.7507811926E+08      0.1072535458E+09      0.5736873725E+10
         35                11           0            66    4     1       0.2173233707E+05      84   11    1      -0.1087786315E+08      0.5255554786E+08      0.7507811926E+08      0.5736873725E+10
         36                11           0            66    4     1       0.1521263569E+05      84   11    1      -0.7614491447E+07      0.3679077853E+08      0.5255554786E+08      0.5736873725E+10
         37                11           0            66    4     1       0.1064884480E+05      84   11    1      -0.5330131294E+07      0.2575547393E+08      0.3679077853E+08      0.5736873725E+10
                                                   Max.-Head-Change                        Max.-Flux-Residual
  Residual-Control   Outer-Iter.   Inner-Iter.     Column Row Layer    Max.-Head-Change    Column Row Layer    Max.-Flux-Residual            L2-New               L2-Old           Solver-Max-Delh
         38                11           0            66    4     1       0.7454191234E+04      84   11    1      -0.3731079215E+07      0.1803068856E+08      0.2575547393E+08      0.5736873725E+10
         39                11           0            66    4     1       0.5217933775E+04      84   11    1      -0.2611742778E+07      0.1262412888E+08      0.1803068856E+08      0.5736873725E+10
         40                11           0            66    4     1       0.3652553580E+04      84   11    1      -0.1828207286E+07      0.8840236344E+07      0.1262412888E+08      0.5736873725E+10
         41                11           0            66    4     1       0.2556787463E+04      84   11    1      -0.1279732451E+07      0.6190571327E+07      0.8840236344E+07      0.5736873725E+10
         42                11           0            66    4     1       0.1789751193E+04      84   11    1      -0.8958000727E+06      0.4335001753E+07      0.6190571327E+07      0.5736873725E+10
         43                11           0            66    4     1       0.1252825814E+04      84   11    1      -0.6270474126E+06      0.3034308036E+07      0.4335001753E+07      0.5736873725E+10
         44                11           0            66    4     1       0.8769780549E+03      84   11    1      -0.4389205537E+06      0.2122642667E+07      0.3034308036E+07      0.5736873725E+10
         45                11           0            66    4     1       0.6138846280E+03      84   11    1      -0.3072317547E+06      0.1482866619E+07      0.2122642667E+07      0.5736873725E+10
         46                11           0            66    4     1       0.4297192323E+03      84   11    1      -0.2150495970E+06      0.1035638787E+07      0.1482866619E+07      0.5736873725E+10
         47                11           0            66    4     1       0.3008034575E+03      84   11    1      -0.1505220877E+06      0.7233188016E+06      0.1035638787E+07      0.5736873725E+10
                                                   Max.-Head-Change                        Max.-Flux-Residual
  Residual-Control   Outer-Iter.   Inner-Iter.     Column Row Layer    Max.-Head-Change    Column Row Layer    Max.-Flux-Residual            L2-New               L2-Old           Solver-Max-Delh
         48                11           0            66    4     1       0.2105624166E+03      84   11    1      -0.1053528320E+06      0.5040992262E+06      0.7233188016E+06      0.5736873725E+10
         49                11           0            66    4     1       0.1473936891E+03      84   11    1      -0.6915864876E+05      0.3247447655E+06      0.5040992262E+06      0.5736873725E+10
         50                11           0            66    4     1       0.1031755806E+03      76    7    1      -0.3783321451E+05      0.1724829813E+06      0.3247447655E+06      0.5736873725E+10
          0                12         200             3  400     1       0.8216706539E+23      76    7    1      -0.1853819528E+05      0.8448727552E+05      0.1724829813E+06      0.8216706539E+23
          1                12           0             3  400     1       0.5751694480E+23       3  400    1      -0.4056605404E+26      0.4683133372E+26      0.8448727552E+05      0.8216706539E+23
          2                12           0             3  400     1       0.4026186067E+23       3  400    1      -0.2839623734E+26      0.3278193305E+26      0.4683133372E+26      0.8216706539E+23
          3                12           0             3  400     1       0.2818330199E+23       3  400    1      -0.1987736580E+26      0.2294735274E+26      0.3278193305E+26      0.8216706539E+23
          4                12           0             3  400     1       0.1972831106E+23       3  400    1      -0.1391415582E+26      0.1606314665E+26      0.2294735274E+26      0.8216706539E+23
          5                12           0             3  400     1       0.1380981751E+23       3  400    1      -0.9739908911E+25      0.1124420246E+26      0.1606314665E+26      0.8216706539E+23
          6                12           0             3  400     1       0.9666872089E+22       3  400    1      -0.6817936122E+25      0.7870941588E+25      0.1124420246E+26      0.8216706539E+23
                                                   Max.-Head-Change                        Max.-Flux-Residual
  Residual-Control   Outer-Iter.   Inner-Iter.     Column Row Layer    Max.-Head-Change    Column Row Layer    Max.-Flux-Residual            L2-New               L2-Old           Solver-Max-Delh
          7                12           0             3  400     1       0.6766810347E+22       3  400    1      -0.4772555204E+25      0.5509659018E+25      0.7870941588E+25      0.8216706539E+23
          8                12           0             3  400     1       0.4736767162E+22       3  400    1      -0.3340788586E+25      0.3856761247E+25      0.5509659018E+25      0.8216706539E+23
          9                12           0             3  400     1       0.3315736957E+22       3  400    1      -0.2338551970E+25      0.2699732827E+25      0.3856761247E+25      0.8216706539E+23
         10                12           0             3  400     1       0.2321015830E+22       3  400    1      -0.1636986351E+25      0.1889812947E+25      0.2699732827E+25      0.8216706539E+23
         11                12           0             3  400     1       0.1624711054E+22       3  400    1      -0.1145890426E+25      0.1322869040E+25      0.1889812947E+25      0.8216706539E+23
         12                12           0             3  400     1       0.1137297718E+22       3  400    1      -0.8021232848E+24      0.9260083123E+24      0.1322869040E+25      0.8216706539E+23
         13                12           0             3  400     1       0.7961083892E+21       3  400    1      -0.5614862898E+24      0.6482058076E+24      0.9260083123E+24      0.8216706539E+23
         14                12           0             3  400     1       0.5572758629E+21       3  400    1      -0.3930403962E+24      0.4537440576E+24      0.6482058076E+24      0.8216706539E+23
         15                12           0             3  400     1       0.3900930974E+21       3  400    1      -0.2751282726E+24      0.3176208349E+24      0.4537440576E+24      0.8216706539E+23
         16                12           0             3  400     1       0.2730651635E+21       3  400    1      -0.1925897876E+24      0.2223345806E+24      0.3176208349E+24      0.8216706539E+23
                                                   Max.-Head-Change                        Max.-Flux-Residual
  Residual-Control   Outer-Iter.   Inner-Iter.     Column Row Layer    Max.-Head-Change    Column Row Layer    Max.-Flux-Residual            L2-New               L2-Old           Solver-Max-Delh
         17                12           0             3  400     1       0.1911456112E+21       3  400    1      -0.1348128490E+24      0.1556342038E+24      0.2223345806E+24      0.8216706539E+23
         18                12           0             3  400     1       0.1338019256E+21       3  400    1      -0.9436899270E+23      0.1089439408E+24      0.1556342038E+24      0.8216706539E+23
         19                12           0             3  400     1       0.9366134631E+20       3  400    1      -0.6605829376E+23      0.7626075726E+23      0.1089439408E+24      0.8216706539E+23
         20                12           0             3  400     1       0.6556294130E+20       3  400    1      -0.4624080485E+23      0.5338252918E+23      0.7626075726E+23      0.8216706539E+23
         21                12           0             3  400     1       0.4589405813E+20       3  400    1      -0.3236856284E+23      0.3736776979E+23      0.5338252918E+23      0.8216706539E+23
         22                12           0             3  400     1       0.3212584014E+20       3  400    1      -0.2265799360E+23      0.2615743841E+23      0.3736776979E+23      0.8216706539E+23
         23                12           0             3  400     1       0.2248808772E+20       3  400    1      -0.1586059525E+23      0.1831020657E+23      0.2615743841E+23      0.8216706539E+23
         24                12           0             3  400     1       0.1574166113E+20       3  400    1      -0.1110241649E+23      0.1281714438E+23      0.1831020657E+23      0.8216706539E+23
         25                12           0             3  400     1       0.1101916261E+20       3  400    1      -0.7771691409E+22      0.8972000915E+22      0.1281714438E+23      0.8216706539E+23
         26                12           0             3  400     1       0.7713413693E+19       3  400    1      -0.5440183893E+22      0.6280400533E+22      0.8972000915E+22      0.8216706539E+23
                                                   Max.-Head-Change                        Max.-Flux-Residual
  Residual-Control   Outer-Iter.   Inner-Iter.     Column Row Layer    Max.-Head-Change    Column Row Layer    Max.-Flux-Residual            L2-New               L2-Old           Solver-Max-Delh
         27                12           0             3  400     1       0.5399389493E+19       3  400    1      -0.3808128661E+22      0.4396280298E+22      0.6280400533E+22      0.8216706539E+23
         28                12           0             3  400     1       0.3779572581E+19       3  400    1      -0.2665690017E+22      0.3077396156E+22      0.4396280298E+22      0.8216706539E+23
         29                12           0             3  400     1       0.2645700761E+19       3  400    1      -0.1865982980E+22      0.2154177273E+22      0.3077396156E+22      0.8216706539E+23
         30                12           0             3  400     1       0.1851990501E+19       3  400    1      -0.1306188064E+22      0.1507924065E+22      0.2154177273E+22      0.8216706539E+23
         31                12           0             3  400     1       0.1296393329E+19       3  400    1      -0.9143316291E+21      0.1055546828E+22      0.1507924065E+22      0.8216706539E+23
         32                12           0             3  400     1       0.9074753148E+18       3  400    1      -0.6400321295E+21      0.7388827668E+21      0.1055546828E+22      0.8216706539E+23
         33                12           0             3  400     1       0.6352327095E+18       3  400    1      -0.4480224830E+21      0.5172179280E+21      0.7388827668E+21      0.8216706539E+23
         34                12           0             3  400     1       0.4446628891E+18       3  400    1      -0.3136157328E+21      0.3620525434E+21      0.5172179280E+21      0.8216706539E+23
         35                12           0             3  400     1       0.3112640171E+18       3  400    1      -0.2195310092E+21      0.2534367761E+21      0.3620525434E+21      0.8216706539E+23
         36                12           0             3  400     1       0.2178848082E+18       3  400    1      -0.1536717038E+21      0.1774057402E+21      0.2534367761E+21      0.8216706539E+23
                                                   Max.-Head-Change                        Max.-Flux-Residual
  Residual-Control   Outer-Iter.   Inner-Iter.     Column Row Layer    Max.-Head-Change    Column Row Layer    Max.-Flux-Residual            L2-New               L2-Old           Solver-Max-Delh
         37                12           0             3  400     1       0.1525193632E+18       3  400    1      -0.1075701908E+21      0.1241840160E+21      0.1774057402E+21      0.8216706539E+23
         38                12           0             3  400     1       0.1067635524E+18       3  400    1      -0.7529913231E+20      0.8692880975E+20      0.1241840160E+21      0.8216706539E+23
         39                12           0             3  400     1       0.7473448541E+17       3  400    1      -0.5270939172E+20      0.6085016579E+20      0.8692880975E+20      0.8216706539E+23
         40                12           0             3  400     1       0.5231413890E+17       3  400    1      -0.3689657357E+20      0.4259511533E+20      0.6085016579E+20      0.8216706539E+23
         41                12           0             3  400     1       0.3661989660E+17       3  400    1      -0.2582760106E+20      0.2981658022E+20      0.4259511533E+20      0.8216706539E+23
         42                12           0             3  400     1       0.2563392719E+17       3  400    1      -0.1807932044E+20      0.2087160580E+20      0.2981658022E+20      0.8216706539E+23
         43                12           0             3  400     1       0.1794374872E+17       3  400    1      -0.1265552409E+20      0.1461012381E+20      0.2087160580E+20      0.8216706539E+23
         44                12           0             3  400     1       0.1256062389E+17       3  400    1      -0.8858866712E+19      0.1022708649E+20      0.1461012381E+20      0.8216706539E+23
         45                12           0             3  400     1       0.8792436575E+16       3  400    1      -0.6201206593E+19      0.7158960424E+19      0.1022708649E+20      0.8216706539E+23
         46                12           0             3  400     1       0.6154705498E+16       3  400    1      -0.4340844541E+19      0.5011272211E+19      0.7158960424E+19      0.8216706539E+23
                                                   Max.-Head-Change                        Max.-Flux-Residual
  Residual-Control   Outer-Iter.   Inner-Iter.     Column Row Layer    Max.-Head-Change    Column Row Layer    Max.-Flux-Residual            L2-New               L2-Old           Solver-Max-Delh
         47                12           0             3  400     1       0.4308293775E+16       3  400    1      -0.3038591127E+19      0.3507890488E+19      0.5011272211E+19      0.8216706539E+23
         48                12           0             3  400     1       0.3015805591E+16       3  400    1      -0.2127013753E+19      0.2455523300E+19      0.3507890488E+19      0.8216706539E+23
         49                12           0             3  400     1       0.2111063878E+16       3  400    1      -0.1488909601E+19      0.1718866281E+19      0.2455523300E+19      0.8216706539E+23
         50                12           0             3  400     1       0.1477744689E+16       3  400    1      -0.1042236703E+19      0.1203206376E+19      0.1718866281E+19      0.8216706539E+23
          0                13         200             7  399     1       0.1872796161E+49       3  400    1      -0.7295656799E+18      0.8422444488E+18      0.1203206376E+19      0.1872796161E+49
          1                13           0             7  399     1       0.5618388706E+48     258   82    1      -0.2076556446E+42      0.3500252422E+42      0.8422444488E+18      0.1872796161E+49
          2                13           0             7  399     1       0.1685516679E+48     258   82    1      -0.1453589487E+42      0.2450176653E+42      0.3500252422E+42      0.1872796161E+49
          3                13           0             7  399     1       0.5056550237E+47     258   82    1      -0.1017512624E+42      0.1715123628E+42      0.2450176653E+42      0.1872796161E+49
          4                13           0             7  399     1       0.1516965131E+47     258   82    1      -0.7122588246E+41      0.1200586519E+42      0.1715123628E+42      0.1872796161E+49
          5                13           0             7  399     1       0.4550895575E+46     258   82    1      -0.4985811687E+41      0.8404105492E+41      0.1200586519E+42      0.1872796161E+49
                                                   Max.-Head-Change                        Max.-Flux-Residual
[...]
          0               242           2           369  356     1      -0.3876175776E-02     369  356    1      -0.1253245378E-01      0.4128221192E-01      0.4773245237E-01     -0.3876175776E-02
          0               243           2           304  324     1       0.5788866542E-02     369  356    1      -0.1081278070E-01      0.3573416777E-01      0.4128221192E-01      0.5788866542E-02
          0               244           2           369  356     1      -0.2986898706E-02     369  356    1      -0.9333589701E-02      0.3106593881E-01      0.3573416777E-01     -0.2986898706E-02
          0               245           2           369  356     1      -0.2622648627E-02     369  356    1      -0.8061096551E-02      0.2688670119E-01      0.3106593881E-01     -0.2622648627E-02
          0               246           2           369  356     1      -0.2294137032E-02     369  356    1      -0.6966294898E-02      0.2332983432E-01      0.2688670119E-01     -0.2294137032E-02
                                                   Max.-Head-Change                        Max.-Flux-Residual
  Residual-Control   Outer-Iter.   Inner-Iter.     Column Row Layer    Max.-Head-Change    Column Row Layer    Max.-Flux-Residual            L2-New               L2-Old           Solver-Max-Delh
          0               247           2           369  356     1      -0.2003399998E-02     369  356    1      -0.6024073463E-02      0.2025654102E-01      0.2332983432E-01     -0.2003399998E-02
          0               248           2           369  356     1      -0.1761558500E-02     369  356    1      -0.5211457394E-02      0.1759483967E-01      0.2025654102E-01     -0.1761558500E-02
          0               249           2           369  356     1      -0.1542833201E-02     369  356    1      -0.4506774675E-02      0.1528803819E-01      0.1759483967E-01     -0.1542833201E-02
          0               250           2           369  356     1      -0.1348750694E-02     369  356    1      -0.3895984371E-02      0.1328921776E-01      0.1528803819E-01     -0.1348750694E-02
          0               251           2           369  356     1      -0.1176960569E-02     369  356    1      -0.3366868871E-02      0.1155467707E-01      0.1328921776E-01     -0.1176960569E-02
          0               252           2           369  356     1      -0.1025396706E-02     369  356    1      -0.2908736943E-02      0.1004889994E-01      0.1155467707E-01     -0.1025396706E-02
          0               253           2           369  356     1      -0.8920416996E-03     386  307    1      -0.2524862874E-02      0.8741182310E-02      0.1004889994E-01     -0.8920416996E-03
          0               254           2           369  356     1      -0.7750030093E-03     386  307    1      -0.2195667323E-02      0.7604975973E-02      0.8741182310E-02     -0.7750030093E-03
          0               255           2           369  356     1      -0.6725205298E-03     386  307    1      -0.1909196824E-02      0.6617523095E-02      0.7604975973E-02     -0.6725205298E-03
          0               256           4           369  356     1      -0.5829697241E-03     386  307    1      -0.1659940657E-02      0.5759549689E-02      0.6617523095E-02     -0.5829697241E-03
                                                   Max.-Head-Change                        Max.-Flux-Residual
  Residual-Control   Outer-Iter.   Inner-Iter.     Column Row Layer    Max.-Head-Change    Column Row Layer    Max.-Flux-Residual            L2-New               L2-Old           Solver-Max-Delh
          0               257           5           369  356     1      -0.5048690707E-03     386  307    1      -0.1443093069E-02      0.5073774294E-02      0.5759549689E-02     -0.5048690707E-03
          0               258           2           369  356     1      -0.4368659424E-03     386  307    1      -0.1254462359E-02      0.4944461932E-02      0.5073774294E-02     -0.4368659424E-03
          0               259           2           369  356     1      -0.3777441210E-03     386  307    1      -0.1090395770E-02      0.4326184190E-02      0.4944461932E-02     -0.3777441210E-03
          0               260           2           369  356     1      -0.3264117417E-03     386  307    1      -0.9477097111E-03      0.3789769294E-02      0.4326184190E-02     -0.3264117417E-03
          0               261           2           369  356     1      -0.2818946045E-03     386  307    1      -0.8236304519E-03      0.3324655800E-02      0.3789769294E-02     -0.2818946045E-03
          0               262           2           369  356     1      -0.2433275612E-03     386  307    1      -0.7157418686E-03      0.2921774645E-02      0.3324655800E-02     -0.2433275612E-03
          0               263           2           306  324     1      -0.2119497591E-03     386  307    1      -0.6219397668E-03      0.2573320221E-02      0.2921774645E-02     -0.2119497591E-03
          0               264           2           306  324     1      -0.1849702515E-03     386  307    1      -0.5403919563E-03      0.2272577057E-02      0.2573320221E-02     -0.1849702515E-03
          0               265           2           306  324     1      -0.1613847695E-03     386  307    1      -0.4695033651E-03      0.2013788230E-02      0.2272577057E-02     -0.1613847695E-03
          0               266           2           306  324     1      -0.1407755213E-03     386  307    1      -0.4078855743E-03      0.1792021690E-02      0.2013788230E-02     -0.1407755213E-03
                                                   Max.-Head-Change                        Max.-Flux-Residual
  Residual-Control   Outer-Iter.   Inner-Iter.     Column Row Layer    Max.-Head-Change    Column Row Layer    Max.-Flux-Residual            L2-New               L2-Old           Solver-Max-Delh
          0               267           2           306  324     1      -0.1227740402E-03     386  307    1      -0.3543302222E-03      0.1603003594E-02      0.1792021690E-02     -0.1227740402E-03
          0               268           2           306  324     1      -0.1070558456E-03     386  307    1      -0.3077857957E-03      0.1442991080E-02      0.1603003594E-02     -0.1070558456E-03
          0               269           2           306  324     1      -0.9333556946E-04     386  307    1      -0.2673373858E-03      0.1308649620E-02      0.1442991080E-02     -0.9333556946E-04
          0               270           2           306  324     1      -0.8136253344E-04     386  307    1      -0.2321890330E-03      0.1196926621E-02      0.1308649620E-02     -0.8136253344E-04
          0               271           2           243  281     1      -0.7096777468E-04     386  307    1      -0.2016483383E-03      0.1104977006E-02      0.1196926621E-02     -0.7096777468E-04
          0               272           2           243  281     1      -0.6245083730E-04     385  307    1      -0.1777672357E-03      0.1030115457E-02      0.1104977006E-02     -0.6245083730E-04
          0               273           2           243  281     1      -0.5494581039E-04     385  307    1      -0.1572505506E-03      0.9698119025E-03      0.1030115457E-02     -0.5494581039E-04
          0               274           2           243  281     1      -0.4833471957E-04     385  307    1      -0.1390999226E-03      0.9217150366E-03      0.9698119025E-03     -0.4833471957E-04
          0               275           2           243  281     1      -0.4251284221E-04     385  307    1      -0.1230427339E-03      0.8836883665E-03      0.9217150366E-03     -0.4251284221E-04
          0               276           2           243  281     1      -0.3738733389E-04     385  307    1      -0.1088377431E-03      0.8538425751E-03      0.8836883665E-03     -0.3738733389E-04
                                                   Max.-Head-Change                        Max.-Flux-Residual
  Residual-Control   Outer-Iter.   Inner-Iter.     Column Row Layer    Max.-Head-Change    Column Row Layer    Max.-Flux-Residual            L2-New               L2-Old           Solver-Max-Delh
          0               277           2           243  281     1      -0.3287596459E-04     385  307    1      -0.9627147932E-04      0.8305438119E-03      0.8538425751E-03     -0.3287596459E-04
          0               278           2           243  281     1      -0.2890597994E-04     385  307    1      -0.8515504963E-04      0.8124263990E-03      0.8305438119E-03     -0.2890597994E-04
          0               279           2           243  281     1      -0.2541305685E-04     385  307    1      -0.7532131339E-04      0.7983605817E-03      0.8124263990E-03     -0.2541305685E-04
          0               280           2           243  281     1      -0.2234037367E-04     385  307    1      -0.6662238022E-04      0.7874426507E-03      0.7983605817E-03     -0.2234037367E-04
          0               281           2           243  281     1      -0.1963776299E-04     385  307    1      -0.5892739562E-04      0.7789470502E-03      0.7874426507E-03     -0.1963776299E-04
          0               282           2           243  281     1      -0.1726096049E-04     252  207    1      -0.5447724755E-04      0.7723108005E-03      0.7789470502E-03     -0.1726096049E-04
          0               283           1           243  281     1      -0.1517002847E-04     252  207    1      -0.5425687152E-04      0.7670968479E-03      0.7723108005E-03     -0.1517002847E-04
          0               284           1           243  281     1      -0.1333238396E-04     252  207    1      -0.4887903242E-04      0.6820233721E-03      0.7670968479E-03     -0.1333238396E-04
          0               285           1           243  281     1      -0.1171677032E-04     252  207    1      -0.4410735392E-04      0.6079654590E-03      0.6820233721E-03     -0.1171677032E-04
          0               286           1           243  281     1      -0.1029648174E-04     252  207    1      -0.3987333184E-04      0.5434562193E-03      0.6079654590E-03     -0.1029648174E-04
                                                   Max.-Head-Change                        Max.-Flux-Residual
  Residual-Control   Outer-Iter.   Inner-Iter.     Column Row Layer    Max.-Head-Change    Column Row Layer    Max.-Flux-Residual            L2-New               L2-Old           Solver-Max-Delh
          0               287           1           243  281     1      -0.9048001786E-05     252  207    1      -0.3611592842E-04      0.4872251247E-03      0.5434562193E-03     -0.9048001786E-05
          0               288           1           243  281     1      -0.7950628399E-05     252  207    1      -0.3278075917E-04      0.4381753514E-03      0.4872251247E-03     -0.7950628399E-05
          0               289           1           243  281     1      -0.6986140169E-05     252  207    1      -0.2981933892E-04      0.3953525737E-03      0.4381753514E-03     -0.6986140169E-05
          0               290           1           243  281     1      -0.6138497788E-05     252  207    1      -0.2718844507E-04      0.3579284913E-03      0.3953525737E-03     -0.6138497788E-05
          0               291           1           243  281     1      -0.5393587140E-05     252  207    1      -0.2484977665E-04      0.3251877614E-03      0.3579284913E-03     -0.5393587140E-05
          0               292           1           243  281     1      -0.4738986165E-05     252  207    1      -0.2276944997E-04      0.2965116806E-03      0.3251877614E-03     -0.4738986165E-05
          0               293           1           243  281     1      -0.4163763941E-05     252  207    1      -0.2091770943E-04      0.2713683632E-03      0.2965116806E-03     -0.4163763941E-05
          0               294           1            66   72     1      -0.3695815866E-05     252  207    1      -0.1926857499E-04      0.2493026661E-03      0.2713683632E-03     -0.3695815866E-05
          0               295           1            66   72     1      -0.3297503844E-05     252  207    1      -0.1779940658E-04      0.2299250757E-03      0.2493026661E-03     -0.3297503844E-05
          0               296           1            66   72     1      -0.2943495237E-05     252  207    1      -0.1649044975E-04      0.2129022933E-03      0.2299250757E-03     -0.2943495237E-05
                                                   Max.-Head-Change                        Max.-Flux-Residual
  Residual-Control   Outer-Iter.   Inner-Iter.     Column Row Layer    Max.-Head-Change    Column Row Layer    Max.-Flux-Residual            L2-New               L2-Old           Solver-Max-Delh
          0               297           1            66   72     1      -0.2628919138E-05     252  207    1      -0.1532437796E-04      0.1979473051E-03      0.2129022933E-03     -0.2628919138E-05
          0               298           1            66   72     1      -0.2349419681E-05     252  207    1      -0.1428589940E-04      0.1848113797E-03      0.1979473051E-03     -0.2349419681E-05
          0               299           1            66   72     1      -0.2101116861E-05     252  207    1      -0.1336141429E-04      0.1732780453E-03      0.1848113797E-03     -0.2101116861E-05
          0               300           1            66   72     1      -0.1880547434E-05     252  207    1      -0.1253882692E-04      0.1631573046E-03      0.1732780453E-03     -0.1880547434E-05
          0               301           1            66   72     1      -0.1684627704E-05     252  207    1      -0.1180728850E-04      0.1542819439E-03      0.1631573046E-03     -0.1684627704E-05
          0               302           1            66   72     1      -0.1510612944E-05     252  207    1      -0.1115707062E-04      0.1465043483E-03      0.1542819439E-03     -0.1510612944E-05
          0               303           1            66   72     1      -0.1356060872E-05     252  207    1      -0.1057944110E-04      0.1396939600E-03      0.1465043483E-03     -0.1356060872E-05
          0               304           1            66   72     1      -0.1218799583E-05     252  207    1      -0.1006656203E-04      0.1337351767E-03      0.1396939600E-03     -0.1218799583E-05
          0               305           1            66   72     1      -0.1096897817E-05     252  207    1      -0.9611399719E-05      0.1285256292E-03      0.1337351767E-03     -0.1096897817E-05
          0               306           1            66   72     1      -0.9886387536E-06     252  207    1      -0.9207644780E-05      0.1239745738E-03      0.1285256292E-03     -0.9886387536E-06
                                                   Max.-Head-Change                        Max.-Flux-Residual
  Residual-Control   Outer-Iter.   Inner-Iter.     Column Row Layer    Max.-Head-Change    Column Row Layer    Max.-Flux-Residual            L2-New               L2-Old           Solver-Max-Delh
          0               307           1            66   72     1      -0.8924965556E-06     252  207    1      -0.8849641517E-05      0.1200016721E-03      0.1239745738E-03     -0.8924965556E-06
          0               308           1            66   72     1      -0.8071153176E-06     252  207    1      -0.8532324273E-05      0.1165358191E-03      0.1200016721E-03     -0.8071153176E-06
          0               309           1            66   72     1      -0.7312903233E-06     252  207    1      -0.8251158988E-05      0.1135141425E-03      0.1165358191E-03     -0.7312903233E-06
          0               310           1            66   72     1      -0.6639515015E-06     252  207    1      -0.8002092500E-05      0.1108811102E-03      0.1135141425E-03     -0.6639515015E-06
          0               311           1            66   72     1      -0.6041483201E-06     252  207    1      -0.7781502518E-05      0.1085877428E-03      0.1108811102E-03     -0.6041483201E-06
          0               312           1            66   72     1      -0.5510366621E-06     252  207    1      -0.7586158631E-05      0.1065909035E-03      0.1085877428E-03     -0.5510366621E-06
          0               313           1            66   72     1      -0.5038668293E-06     252  207    1      -0.7413180583E-05      0.1048526594E-03      0.1065909035E-03     -0.5038668293E-06
          0               314           1            66   72     1      -0.4619732977E-06     252  207    1      -0.7260003713E-05      0.1033397124E-03      0.1048526594E-03     -0.4619732977E-06
          0               315           1            66   72     1      -0.4247649939E-06     252  207    1      -0.7124348372E-05      0.1020228763E-03      0.1033397124E-03     -0.4247649939E-06
          0               316           1            66   72     1      -0.3917171462E-06     252  207    1      -0.7004187978E-05      0.1008766123E-03      0.1020228763E-03     -0.3917171462E-06

    ------------------------------------------------
       NWT REQUIRED          316 OUTER ITERATIONS 
       AND A TOTAL OF      23618 INNER ITERATIONS.
    ------------------------------------------------

 OUTPUT CONTROL FOR STRESS PERIOD    1   TIME STEP    1
    PRINT BUDGET
    SAVE HEAD FOR ALL LAYERS
    SAVE DRAWDOWN FOR ALL LAYERS
    SAVE BUDGET
 UBDSV2 SAVING "   CONSTANT HEAD" ON UNIT  40 AT TIME STEP  1, STRESS PERIOD   1
 UBDSV1 SAVING "FLOW RIGHT FACE " ON UNIT  40 AT TIME STEP  1, STRESS PERIOD   1
 UBDSV1 SAVING "FLOW FRONT FACE " ON UNIT  40 AT TIME STEP  1, STRESS PERIOD   1
 UBDSV3 SAVING "        RECHARGE" ON UNIT  40 AT TIME STEP  1, STRESS PERIOD   1

 SAVING SATURATED THICKNESS AND FLOW TERMS ON UNIT  333 FOR MT3DMS
 BY THE LINK-MT3DMS PACKAGE V7 AT TIME STEP    1, STRESS PERIOD    1


 HEAD WILL BE SAVED ON UNIT    2 AT END OF TIME STEP    1, STRESS PERIOD    1

 DRAWDOWN WILL BE SAVED ON UNIT   12 AT END OF TIME STEP    1, STRESS PERIOD    1
1
  VOLUMETRIC BUDGET FOR ENTIRE MODEL AT END OF TIME STEP    1, STRESS PERIOD   1
  ------------------------------------------------------------------------------

     CUMULATIVE VOLUMES      L**3       RATES FOR THIS TIME STEP      L**3/T
     ------------------                 ------------------------

           IN:                                      IN:
           ---                                      ---
             STORAGE     =           0.0000               STORAGE     =           0.0000
       CONSTANT HEAD     =           0.0000         CONSTANT HEAD     =           0.0000
            RECHARGE     =           0.2337              RECHARGE     =           0.2337

                TOTAL IN =           0.2337                  TOTAL IN =           0.2337

          OUT:                                     OUT:
          ----                                     ----
             STORAGE     =           0.0000               STORAGE     =           0.0000
       CONSTANT HEAD     =           0.2336         CONSTANT HEAD     =           0.2336
            RECHARGE     =           0.0000              RECHARGE     =           0.0000

               TOTAL OUT =           0.2336                 TOTAL OUT =           0.2336

                IN - OUT =       9.0018E-05                  IN - OUT =       9.0018E-05

     PERCENT DISCREPANCY =           0.04         PERCENT DISCREPANCY =           0.04






         TIME SUMMARY AT END OF TIME STEP    1 IN STRESS PERIOD    1
                    SECONDS     MINUTES      HOURS       DAYS        YEARS
                    -----------------------------------------------------------
   TIME STEP LENGTH  86400.      1440.0      24.000      1.0000     2.73785E-03
 STRESS PERIOD TIME  86400.      1440.0      24.000      1.0000     2.73785E-03
         TOTAL TIME  86400.      1440.0      24.000      1.0000     2.73785E-03
1

 Run end date and time (yyyy/mm/dd hh:mm:ss): 2023/05/24 23:23:22
 Elapsed run time:  5 Minutes, 29.184 Seconds

