                                  MODFLOW-NWT-SWR1 
      U.S. GEOLOGICAL SURVEY MODULAR FINITE-DIFFERENCE GROUNDWATER-FLOW MODEL
                            VERSION 1.2.0 03/01/2020
                    BASED ON MODFLOW-2005 VERSION 1.12.00 02/03/2017

 LIST FILE: case2.out
                         UNIT    1

 OPENING case2.hed
 FILE TYPE:DATA(BINARY)   UNIT    2   STATUS:UNKNOWN
 FORMAT:BINARY                 ACCESS:SEQUENTIAL          

 OPENING case2.drw
 FILE TYPE:DATA(BINARY)   UNIT   13   STATUS:UNKNOWN
 FORMAT:BINARY                 ACCESS:SEQUENTIAL          

 OPENING case2.ccf
 FILE TYPE:DATA(BINARY)   UNIT   40   STATUS:UNKNOWN
 FORMAT:BINARY                 ACCESS:SEQUENTIAL          

 OPENING case2.lmt6
 FILE TYPE:LMT6   UNIT    8   STATUS:OLD    
 FORMAT:FORMATTED              ACCESS:SEQUENTIAL          

 OPENING case2.dis
 FILE TYPE:DIS   UNIT    4   STATUS:OLD    
 FORMAT:FORMATTED              ACCESS:SEQUENTIAL          

 OPENING case2.ba6
 FILE TYPE:BAS6   UNIT    7   STATUS:OLD    
 FORMAT:FORMATTED              ACCESS:SEQUENTIAL          

 OPENING case2.upw
 FILE TYPE:UPW   UNIT    3   STATUS:OLD    
 FORMAT:FORMATTED              ACCESS:SEQUENTIAL          

 OPENING case2.oc
 FILE TYPE:OC   UNIT    9   STATUS:OLD    
 FORMAT:FORMATTED              ACCESS:SEQUENTIAL          

 OPENING case2.drn
 FILE TYPE:DRN   UNIT   10   STATUS:OLD    
 FORMAT:FORMATTED              ACCESS:SEQUENTIAL          

 OPENING case2.ghb
 FILE TYPE:GHB   UNIT   11   STATUS:OLD    
 FORMAT:FORMATTED              ACCESS:SEQUENTIAL          

 OPENING case2.nwt
 FILE TYPE:NWT   UNIT   14   STATUS:OLD    
 FORMAT:FORMATTED              ACCESS:SEQUENTIAL          

 BAS -- BASIC PACKAGE, VERSION 1.2.0, 3/01/2020 INPUT READ FROM UNIT    7
 
 MODFLOW was compiled using mixed precision
 Precision of REAL variables:           6
 Precision of DOUBLE PRECISION variables:          15

 DISCRETIZATION INPUT DATA READ FROM UNIT    4
 # MF2K DISCRETIZATION FILE
 #
 #
 # NLAY NROW NCOL NPER TIMEUNITS LENUNITS
   40 LAYERS         1 ROWS       100 COLUMNS
    3 STRESS PERIOD(S) IN SIMULATION
 MODEL TIME UNIT IS DAYS
 MODEL LENGTH UNIT IS METERS
  Confining bed flag for each layer:
   0   0   0   0   0   0   0   0   0   0   0   0   0   0   0   0   0   0   0   0
   0   0   0   0   0   0   0   0   0   0   0   0   0   0   0   0   0   0   0   0

                     DELR =   1.00000    

                     DELC =   1.00000    

 TOP ELEVATION OF LAYER 1 =   40.0000    



             MODEL LAYER BOTTOM EL. FOR LAYER   1
 READING ON UNIT    4 WITH FORMAT: (FREE)              

   MODEL LAYER BOTTOM EL. =   38.0000     FOR LAYER   2



             MODEL LAYER BOTTOM EL. FOR LAYER   3
 READING ON UNIT    4 WITH FORMAT: (FREE)              

   MODEL LAYER BOTTOM EL. =   36.0000     FOR LAYER   4



             MODEL LAYER BOTTOM EL. FOR LAYER   5
 READING ON UNIT    4 WITH FORMAT: (FREE)              

   MODEL LAYER BOTTOM EL. =   34.0000     FOR LAYER   6



             MODEL LAYER BOTTOM EL. FOR LAYER   7
 READING ON UNIT    4 WITH FORMAT: (FREE)              

   MODEL LAYER BOTTOM EL. =   32.0000     FOR LAYER   8



             MODEL LAYER BOTTOM EL. FOR LAYER   9
 READING ON UNIT    4 WITH FORMAT: (FREE)              

   MODEL LAYER BOTTOM EL. =   30.0000     FOR LAYER  10



             MODEL LAYER BOTTOM EL. FOR LAYER  11
 READING ON UNIT    4 WITH FORMAT: (FREE)              

   MODEL LAYER BOTTOM EL. =   28.0000     FOR LAYER  12



             MODEL LAYER BOTTOM EL. FOR LAYER  13
 READING ON UNIT    4 WITH FORMAT: (FREE)              

   MODEL LAYER BOTTOM EL. =   26.0000     FOR LAYER  14



             MODEL LAYER BOTTOM EL. FOR LAYER  15
 READING ON UNIT    4 WITH FORMAT: (FREE)              

   MODEL LAYER BOTTOM EL. =   24.0000     FOR LAYER  16



             MODEL LAYER BOTTOM EL. FOR LAYER  17
 READING ON UNIT    4 WITH FORMAT: (FREE)              

   MODEL LAYER BOTTOM EL. =   22.0000     FOR LAYER  18



             MODEL LAYER BOTTOM EL. FOR LAYER  19
 READING ON UNIT    4 WITH FORMAT: (FREE)              

   MODEL LAYER BOTTOM EL. =   20.0000     FOR LAYER  20



             MODEL LAYER BOTTOM EL. FOR LAYER  21
 READING ON UNIT    4 WITH FORMAT: (FREE)              

   MODEL LAYER BOTTOM EL. =   18.0000     FOR LAYER  22



             MODEL LAYER BOTTOM EL. FOR LAYER  23
 READING ON UNIT    4 WITH FORMAT: (FREE)              

   MODEL LAYER BOTTOM EL. =   16.0000     FOR LAYER  24



             MODEL LAYER BOTTOM EL. FOR LAYER  25
 READING ON UNIT    4 WITH FORMAT: (FREE)              

   MODEL LAYER BOTTOM EL. =   14.0000     FOR LAYER  26



             MODEL LAYER BOTTOM EL. FOR LAYER  27
 READING ON UNIT    4 WITH FORMAT: (FREE)              

   MODEL LAYER BOTTOM EL. =   12.0000     FOR LAYER  28



             MODEL LAYER BOTTOM EL. FOR LAYER  29
 READING ON UNIT    4 WITH FORMAT: (FREE)              

   MODEL LAYER BOTTOM EL. =   10.0000     FOR LAYER  30



             MODEL LAYER BOTTOM EL. FOR LAYER  31
 READING ON UNIT    4 WITH FORMAT: (FREE)              

   MODEL LAYER BOTTOM EL. =   8.00000     FOR LAYER  32



             MODEL LAYER BOTTOM EL. FOR LAYER  33
 READING ON UNIT    4 WITH FORMAT: (FREE)              

   MODEL LAYER BOTTOM EL. =   6.00000     FOR LAYER  34



             MODEL LAYER BOTTOM EL. FOR LAYER  35
 READING ON UNIT    4 WITH FORMAT: (FREE)              

   MODEL LAYER BOTTOM EL. =   4.00000     FOR LAYER  36



             MODEL LAYER BOTTOM EL. FOR LAYER  37
 READING ON UNIT    4 WITH FORMAT: (FREE)              

   MODEL LAYER BOTTOM EL. =   2.00000     FOR LAYER  38



             MODEL LAYER BOTTOM EL. FOR LAYER  39
 READING ON UNIT    4 WITH FORMAT: (FREE)              

   MODEL LAYER BOTTOM EL. =   0.00000     FOR LAYER  40


 STRESS PERIOD     LENGTH       TIME STEPS     MULTIPLIER FOR DELT    SS FLAG
 ----------------------------------------------------------------------------
        1         10.00000         10                    1.000         TR
        2         10.00000         10                    1.000         TR
        3         10.00000         10                    1.000         TR

 TRANSIENT SIMULATION



 
 THE FREE FORMAT OPTION HAS BEEN SELECTED



                     BOUNDARY ARRAY FOR LAYER   1
 READING ON UNIT    7 WITH FORMAT: (FREE)              



                     BOUNDARY ARRAY FOR LAYER   2
 READING ON UNIT    7 WITH FORMAT: (FREE)              



                     BOUNDARY ARRAY FOR LAYER   3
 READING ON UNIT    7 WITH FORMAT: (FREE)              



                     BOUNDARY ARRAY FOR LAYER   4
 READING ON UNIT    7 WITH FORMAT: (FREE)              



                     BOUNDARY ARRAY FOR LAYER   5
 READING ON UNIT    7 WITH FORMAT: (FREE)              



                     BOUNDARY ARRAY FOR LAYER   6
 READING ON UNIT    7 WITH FORMAT: (FREE)              



                     BOUNDARY ARRAY FOR LAYER   7
 READING ON UNIT    7 WITH FORMAT: (FREE)              



                     BOUNDARY ARRAY FOR LAYER   8
 READING ON UNIT    7 WITH FORMAT: (FREE)              



                     BOUNDARY ARRAY FOR LAYER   9
 READING ON UNIT    7 WITH FORMAT: (FREE)              



                     BOUNDARY ARRAY FOR LAYER  10
 READING ON UNIT    7 WITH FORMAT: (FREE)              



                     BOUNDARY ARRAY FOR LAYER  11
 READING ON UNIT    7 WITH FORMAT: (FREE)              



                     BOUNDARY ARRAY FOR LAYER  12
 READING ON UNIT    7 WITH FORMAT: (FREE)              



                     BOUNDARY ARRAY FOR LAYER  13
 READING ON UNIT    7 WITH FORMAT: (FREE)              



                     BOUNDARY ARRAY FOR LAYER  14
 READING ON UNIT    7 WITH FORMAT: (FREE)              



                     BOUNDARY ARRAY FOR LAYER  15
 READING ON UNIT    7 WITH FORMAT: (FREE)              



                     BOUNDARY ARRAY FOR LAYER  16
 READING ON UNIT    7 WITH FORMAT: (FREE)              



                     BOUNDARY ARRAY FOR LAYER  17
 READING ON UNIT    7 WITH FORMAT: (FREE)              



                     BOUNDARY ARRAY FOR LAYER  18
 READING ON UNIT    7 WITH FORMAT: (FREE)              



                     BOUNDARY ARRAY FOR LAYER  19
 READING ON UNIT    7 WITH FORMAT: (FREE)              



                     BOUNDARY ARRAY FOR LAYER  20
 READING ON UNIT    7 WITH FORMAT: (FREE)              



                     BOUNDARY ARRAY FOR LAYER  21
 READING ON UNIT    7 WITH FORMAT: (FREE)              



                     BOUNDARY ARRAY FOR LAYER  22
 READING ON UNIT    7 WITH FORMAT: (FREE)              



                     BOUNDARY ARRAY FOR LAYER  23
 READING ON UNIT    7 WITH FORMAT: (FREE)              



                     BOUNDARY ARRAY FOR LAYER  24
 READING ON UNIT    7 WITH FORMAT: (FREE)              



                     BOUNDARY ARRAY FOR LAYER  25
 READING ON UNIT    7 WITH FORMAT: (FREE)              



                     BOUNDARY ARRAY FOR LAYER  26
 READING ON UNIT    7 WITH FORMAT: (FREE)              



                     BOUNDARY ARRAY FOR LAYER  27
 READING ON UNIT    7 WITH FORMAT: (FREE)              



                     BOUNDARY ARRAY FOR LAYER  28
 READING ON UNIT    7 WITH FORMAT: (FREE)              



                     BOUNDARY ARRAY FOR LAYER  29
 READING ON UNIT    7 WITH FORMAT: (FREE)              



                     BOUNDARY ARRAY FOR LAYER  30
 READING ON UNIT    7 WITH FORMAT: (FREE)              



                     BOUNDARY ARRAY FOR LAYER  31
 READING ON UNIT    7 WITH FORMAT: (FREE)              



                     BOUNDARY ARRAY FOR LAYER  32
 READING ON UNIT    7 WITH FORMAT: (FREE)              



                     BOUNDARY ARRAY FOR LAYER  33
 READING ON UNIT    7 WITH FORMAT: (FREE)              



                     BOUNDARY ARRAY FOR LAYER  34
 READING ON UNIT    7 WITH FORMAT: (FREE)              



                     BOUNDARY ARRAY FOR LAYER  35
 READING ON UNIT    7 WITH FORMAT: (FREE)              



                     BOUNDARY ARRAY FOR LAYER  36
 READING ON UNIT    7 WITH FORMAT: (FREE)              



                     BOUNDARY ARRAY FOR LAYER  37
 READING ON UNIT    7 WITH FORMAT: (FREE)              



                     BOUNDARY ARRAY FOR LAYER  38
 READING ON UNIT    7 WITH FORMAT: (FREE)              



                     BOUNDARY ARRAY FOR LAYER  39
 READING ON UNIT    7 WITH FORMAT: (FREE)              

           BOUNDARY ARRAY =              1 FOR LAYER  40

 AQUIFER HEAD WILL BE SET TO  -9999.0     AT ALL NO-FLOW NODES (IBOUND=0).

             INITIAL HEAD =   38.0000     FOR LAYER   1

             INITIAL HEAD =   38.0000     FOR LAYER   2

             INITIAL HEAD =   38.0000     FOR LAYER   3

             INITIAL HEAD =   38.0000     FOR LAYER   4

             INITIAL HEAD =   38.0000     FOR LAYER   5

             INITIAL HEAD =   38.0000     FOR LAYER   6

             INITIAL HEAD =   38.0000     FOR LAYER   7

             INITIAL HEAD =   38.0000     FOR LAYER   8

             INITIAL HEAD =   38.0000     FOR LAYER   9

             INITIAL HEAD =   38.0000     FOR LAYER  10

             INITIAL HEAD =   38.0000     FOR LAYER  11

             INITIAL HEAD =   38.0000     FOR LAYER  12

             INITIAL HEAD =   38.0000     FOR LAYER  13

             INITIAL HEAD =   38.0000     FOR LAYER  14

             INITIAL HEAD =   38.0000     FOR LAYER  15

             INITIAL HEAD =   38.0000     FOR LAYER  16

             INITIAL HEAD =   38.0000     FOR LAYER  17

             INITIAL HEAD =   38.0000     FOR LAYER  18

             INITIAL HEAD =   38.0000     FOR LAYER  19

             INITIAL HEAD =   38.0000     FOR LAYER  20

             INITIAL HEAD =   38.0000     FOR LAYER  21

             INITIAL HEAD =   38.0000     FOR LAYER  22

             INITIAL HEAD =   38.0000     FOR LAYER  23

             INITIAL HEAD =   38.0000     FOR LAYER  24

             INITIAL HEAD =   38.0000     FOR LAYER  25

             INITIAL HEAD =   38.0000     FOR LAYER  26

             INITIAL HEAD =   38.0000     FOR LAYER  27

             INITIAL HEAD =   38.0000     FOR LAYER  28

             INITIAL HEAD =   38.0000     FOR LAYER  29

             INITIAL HEAD =   38.0000     FOR LAYER  30

             INITIAL HEAD =   38.0000     FOR LAYER  31

             INITIAL HEAD =   38.0000     FOR LAYER  32

             INITIAL HEAD =   38.0000     FOR LAYER  33

             INITIAL HEAD =   38.0000     FOR LAYER  34

             INITIAL HEAD =   38.0000     FOR LAYER  35

             INITIAL HEAD =   38.0000     FOR LAYER  36

             INITIAL HEAD =   38.0000     FOR LAYER  37

             INITIAL HEAD =   38.0000     FOR LAYER  38

             INITIAL HEAD =   38.0000     FOR LAYER  39

             INITIAL HEAD =   38.0000     FOR LAYER  40

 OUTPUT CONTROL IS SPECIFIED ONLY AT TIME STEPS FOR WHICH OUTPUT IS DESIRED
 COMPACT CELL-BY-CELL BUDGET FILES WILL BE WRITTEN
 AUXILIARY DATA WILL BE SAVED IN CELL-BY-CELL BUDGET FILES
 HEAD PRINT FORMAT CODE IS   0    DRAWDOWN PRINT FORMAT CODE IS   0
 HEADS WILL BE SAVED ON UNIT    2    DRAWDOWNS WILL BE SAVED ON UNIT   13
 #

 NWT1 -- Newton Solver, VERSION 1.2.0, 3/01/2020
         INPUT READ FROM UNIT 14

 SIMPLE OPTION:
 DEFAULT SOLVER INPUT VALUES REFLECT NEARLY LINEAR MODEL
 ***XMD linear solver will be used***
 
   CONVERGENCE CRITERION OF   0.100000E-03 FOR HEAD SOLUTION
   AND A TOLERANCE OF   0.100000E-03 FOR FLOW SOLUTION AND 
   A MAXIMUM OF 50000 OUTER ITERATIONS. 


   D-B-D REDUCTION FACTOR OF    0.970000E+00 AND 
   A D-B-D INCREASE FACTOR OF    0.100000E-03 AND 
   A D-B-D RELAXATION OF    0.000000E+00 AND 
   A MOMENTUM FACTOR OF    0.000000E+00 .


 ***BACKTRACKING IS INACTIVE***
 XMD -- LINEAR SOLUTION BY XMD PACKAGE VERSION 1.30
     BY MOTOMU IBARAKI, OHIO STATE UNIVERSITY, COLOMBUS, OH
                 INPUT READ FROM UNIT 14
 ACCELERATION METHOD                    (IACL) =         1
 NODE ORDERING FLAG                   (NORDER) =         0
 LEVEL OF FILL                         (LEVEL) =         1
 MAXIMUM NUMBER OF ORTHOGONALIZATIONS  (NORTH) =         5
 INDEX FOR USING REDUCED SYSTEM      (IREDSYS) =         1
 RESID. REDUCTION CONVERGE CRITERION  (RRCTOL) =  0.000000E+00
 INDEX FOR USING DROP TOLERANCE     (IDROPTOL) =         1
 DROP TOLERANCE VALUE                  (EPSRN) =  0.500000E-02
 CONVERGENCE CRITERIA OF           (HCLOSEXMD) =  0.100000E-02
 MAX. NUMBER OF LINEAR ITERATIONS  (MXITERXMD) =        50


 UPW1 -- UPSTREAM WEIGHTING FLOW PACKAGE, VERSION 1.2.0, 3/01/2020
         INPUT READ FROM UNIT  3

 CELL-BY-CELL FLOWS WILL BE SAVED ON UNIT   40
 No named parameters

   LAYER FLAGS:
 LAYER       LAYTYP          LAYAVG    CHANI           LAYVKA           LAYWET
 ---------------------------------------------------------------------------
    1             1             0    -1.000E+00             1             0
    2             1             0    -1.000E+00             1             0
    3             1             0    -1.000E+00             1             0
    4             1             0    -1.000E+00             1             0
    5             1             0    -1.000E+00             1             0
    6             1             0    -1.000E+00             1             0
    7             1             0    -1.000E+00             1             0
    8             1             0    -1.000E+00             1             0
    9             1             0    -1.000E+00             1             0
   10             1             0    -1.000E+00             1             0
   11             1             0    -1.000E+00             1             0
   12             1             0    -1.000E+00             1             0
   13             1             0    -1.000E+00             1             0
   14             1             0    -1.000E+00             1             0
   15             1             0    -1.000E+00             1             0
   16             1             0    -1.000E+00             1             0
   17             1             0    -1.000E+00             1             0
   18             1             0    -1.000E+00             1             0
   19             1             0    -1.000E+00             1             0
   20             1             0    -1.000E+00             1             0
   21             1             0    -1.000E+00             1             0
   22             1             0    -1.000E+00             1             0
   23             1             0    -1.000E+00             1             0
   24             1             0    -1.000E+00             1             0
   25             1             0    -1.000E+00             1             0
   26             1             0    -1.000E+00             1             0
   27             1             0    -1.000E+00             1             0
   28             1             0    -1.000E+00             1             0
   29             1             0    -1.000E+00             1             0
   30             1             0    -1.000E+00             1             0
   31             1             0    -1.000E+00             1             0
   32             1             0    -1.000E+00             1             0
   33             1             0    -1.000E+00             1             0
   34             1             0    -1.000E+00             1             0
   35             1             0    -1.000E+00             1             0
   36             1             0    -1.000E+00             1             0
   37             1             0    -1.000E+00             1             0
   38             1             0    -1.000E+00             1             0
   39             1             0    -1.000E+00             1             0
   40             1             0    -1.000E+00             1             0

   INTERPRETATION OF LAYER FLAGS:
                        INTERBLOCK     HORIZONTAL    DATA IN
         LAYER TYPE   TRANSMISSIVITY   ANISOTROPY   ARRAY VKA   WETTABILITY
 LAYER   (LAYTYP)        (LAYAVG)      (CHANI)     (LAYVKA)       (LAYWET)
 ---------------------------------------------------------------------------
    1   CONVERTIBLE      HARMONIC      VARIABLE    ANISOTROPY  NON-WETTABLE
    2   CONVERTIBLE      HARMONIC      VARIABLE    ANISOTROPY  NON-WETTABLE
    3   CONVERTIBLE      HARMONIC      VARIABLE    ANISOTROPY  NON-WETTABLE
    4   CONVERTIBLE      HARMONIC      VARIABLE    ANISOTROPY  NON-WETTABLE
    5   CONVERTIBLE      HARMONIC      VARIABLE    ANISOTROPY  NON-WETTABLE
    6   CONVERTIBLE      HARMONIC      VARIABLE    ANISOTROPY  NON-WETTABLE
    7   CONVERTIBLE      HARMONIC      VARIABLE    ANISOTROPY  NON-WETTABLE
    8   CONVERTIBLE      HARMONIC      VARIABLE    ANISOTROPY  NON-WETTABLE
    9   CONVERTIBLE      HARMONIC      VARIABLE    ANISOTROPY  NON-WETTABLE
   10   CONVERTIBLE      HARMONIC      VARIABLE    ANISOTROPY  NON-WETTABLE
   11   CONVERTIBLE      HARMONIC      VARIABLE    ANISOTROPY  NON-WETTABLE
   12   CONVERTIBLE      HARMONIC      VARIABLE    ANISOTROPY  NON-WETTABLE
   13   CONVERTIBLE      HARMONIC      VARIABLE    ANISOTROPY  NON-WETTABLE
   14   CONVERTIBLE      HARMONIC      VARIABLE    ANISOTROPY  NON-WETTABLE
   15   CONVERTIBLE      HARMONIC      VARIABLE    ANISOTROPY  NON-WETTABLE
   16   CONVERTIBLE      HARMONIC      VARIABLE    ANISOTROPY  NON-WETTABLE
   17   CONVERTIBLE      HARMONIC      VARIABLE    ANISOTROPY  NON-WETTABLE
   18   CONVERTIBLE      HARMONIC      VARIABLE    ANISOTROPY  NON-WETTABLE
   19   CONVERTIBLE      HARMONIC      VARIABLE    ANISOTROPY  NON-WETTABLE
   20   CONVERTIBLE      HARMONIC      VARIABLE    ANISOTROPY  NON-WETTABLE
   21   CONVERTIBLE      HARMONIC      VARIABLE    ANISOTROPY  NON-WETTABLE
   22   CONVERTIBLE      HARMONIC      VARIABLE    ANISOTROPY  NON-WETTABLE
   23   CONVERTIBLE      HARMONIC      VARIABLE    ANISOTROPY  NON-WETTABLE
   24   CONVERTIBLE      HARMONIC      VARIABLE    ANISOTROPY  NON-WETTABLE
   25   CONVERTIBLE      HARMONIC      VARIABLE    ANISOTROPY  NON-WETTABLE
   26   CONVERTIBLE      HARMONIC      VARIABLE    ANISOTROPY  NON-WETTABLE
   27   CONVERTIBLE      HARMONIC      VARIABLE    ANISOTROPY  NON-WETTABLE
   28   CONVERTIBLE      HARMONIC      VARIABLE    ANISOTROPY  NON-WETTABLE
   29   CONVERTIBLE      HARMONIC      VARIABLE    ANISOTROPY  NON-WETTABLE
   30   CONVERTIBLE      HARMONIC      VARIABLE    ANISOTROPY  NON-WETTABLE
   31   CONVERTIBLE      HARMONIC      VARIABLE    ANISOTROPY  NON-WETTABLE
   32   CONVERTIBLE      HARMONIC      VARIABLE    ANISOTROPY  NON-WETTABLE
   33   CONVERTIBLE      HARMONIC      VARIABLE    ANISOTROPY  NON-WETTABLE
   34   CONVERTIBLE      HARMONIC      VARIABLE    ANISOTROPY  NON-WETTABLE
   35   CONVERTIBLE      HARMONIC      VARIABLE    ANISOTROPY  NON-WETTABLE
   36   CONVERTIBLE      HARMONIC      VARIABLE    ANISOTROPY  NON-WETTABLE
   37   CONVERTIBLE      HARMONIC      VARIABLE    ANISOTROPY  NON-WETTABLE
   38   CONVERTIBLE      HARMONIC      VARIABLE    ANISOTROPY  NON-WETTABLE
   39   CONVERTIBLE      HARMONIC      VARIABLE    ANISOTROPY  NON-WETTABLE
   40   CONVERTIBLE      HARMONIC      VARIABLE    ANISOTROPY  NON-WETTABLE



              HYD. COND. ALONG ROWS FOR LAYER   1
 READING ON UNIT    3 WITH FORMAT: (FREE)              

   HORIZ. ANI. (COL./ROW) =   1.00000     FOR LAYER   1



            HORIZ. TO VERTICAL ANI. FOR LAYER   1
 READING ON UNIT    3 WITH FORMAT: (FREE)              



                   SPECIFIC STORAGE FOR LAYER   1
 READING ON UNIT    3 WITH FORMAT: (FREE)              



                     SPECIFIC YIELD FOR LAYER   1
 READING ON UNIT    3 WITH FORMAT: (FREE)              



              HYD. COND. ALONG ROWS FOR LAYER   2
 READING ON UNIT    3 WITH FORMAT: (FREE)              

   HORIZ. ANI. (COL./ROW) =   1.00000     FOR LAYER   2



            HORIZ. TO VERTICAL ANI. FOR LAYER   2
 READING ON UNIT    3 WITH FORMAT: (FREE)              



                   SPECIFIC STORAGE FOR LAYER   2
 READING ON UNIT    3 WITH FORMAT: (FREE)              



                     SPECIFIC YIELD FOR LAYER   2
 READING ON UNIT    3 WITH FORMAT: (FREE)              



              HYD. COND. ALONG ROWS FOR LAYER   3
 READING ON UNIT    3 WITH FORMAT: (FREE)              

   HORIZ. ANI. (COL./ROW) =   1.00000     FOR LAYER   3



            HORIZ. TO VERTICAL ANI. FOR LAYER   3
 READING ON UNIT    3 WITH FORMAT: (FREE)              



                   SPECIFIC STORAGE FOR LAYER   3
 READING ON UNIT    3 WITH FORMAT: (FREE)              



                     SPECIFIC YIELD FOR LAYER   3
 READING ON UNIT    3 WITH FORMAT: (FREE)              



              HYD. COND. ALONG ROWS FOR LAYER   4
 READING ON UNIT    3 WITH FORMAT: (FREE)              

   HORIZ. ANI. (COL./ROW) =   1.00000     FOR LAYER   4



            HORIZ. TO VERTICAL ANI. FOR LAYER   4
 READING ON UNIT    3 WITH FORMAT: (FREE)              



                   SPECIFIC STORAGE FOR LAYER   4
 READING ON UNIT    3 WITH FORMAT: (FREE)              



                     SPECIFIC YIELD FOR LAYER   4
 READING ON UNIT    3 WITH FORMAT: (FREE)              



              HYD. COND. ALONG ROWS FOR LAYER   5
 READING ON UNIT    3 WITH FORMAT: (FREE)              

   HORIZ. ANI. (COL./ROW) =   1.00000     FOR LAYER   5



            HORIZ. TO VERTICAL ANI. FOR LAYER   5
 READING ON UNIT    3 WITH FORMAT: (FREE)              



                   SPECIFIC STORAGE FOR LAYER   5
 READING ON UNIT    3 WITH FORMAT: (FREE)              



                     SPECIFIC YIELD FOR LAYER   5
 READING ON UNIT    3 WITH FORMAT: (FREE)              



              HYD. COND. ALONG ROWS FOR LAYER   6
 READING ON UNIT    3 WITH FORMAT: (FREE)              

   HORIZ. ANI. (COL./ROW) =   1.00000     FOR LAYER   6



            HORIZ. TO VERTICAL ANI. FOR LAYER   6
 READING ON UNIT    3 WITH FORMAT: (FREE)              



                   SPECIFIC STORAGE FOR LAYER   6
 READING ON UNIT    3 WITH FORMAT: (FREE)              



                     SPECIFIC YIELD FOR LAYER   6
 READING ON UNIT    3 WITH FORMAT: (FREE)              



              HYD. COND. ALONG ROWS FOR LAYER   7
 READING ON UNIT    3 WITH FORMAT: (FREE)              

   HORIZ. ANI. (COL./ROW) =   1.00000     FOR LAYER   7



            HORIZ. TO VERTICAL ANI. FOR LAYER   7
 READING ON UNIT    3 WITH FORMAT: (FREE)              



                   SPECIFIC STORAGE FOR LAYER   7
 READING ON UNIT    3 WITH FORMAT: (FREE)              



                     SPECIFIC YIELD FOR LAYER   7
 READING ON UNIT    3 WITH FORMAT: (FREE)              



              HYD. COND. ALONG ROWS FOR LAYER   8
 READING ON UNIT    3 WITH FORMAT: (FREE)              

   HORIZ. ANI. (COL./ROW) =   1.00000     FOR LAYER   8



            HORIZ. TO VERTICAL ANI. FOR LAYER   8
 READING ON UNIT    3 WITH FORMAT: (FREE)              



                   SPECIFIC STORAGE FOR LAYER   8
 READING ON UNIT    3 WITH FORMAT: (FREE)              



                     SPECIFIC YIELD FOR LAYER   8
 READING ON UNIT    3 WITH FORMAT: (FREE)              



              HYD. COND. ALONG ROWS FOR LAYER   9
 READING ON UNIT    3 WITH FORMAT: (FREE)              

   HORIZ. ANI. (COL./ROW) =   1.00000     FOR LAYER   9



            HORIZ. TO VERTICAL ANI. FOR LAYER   9
 READING ON UNIT    3 WITH FORMAT: (FREE)              



                   SPECIFIC STORAGE FOR LAYER   9
 READING ON UNIT    3 WITH FORMAT: (FREE)              



                     SPECIFIC YIELD FOR LAYER   9
 READING ON UNIT    3 WITH FORMAT: (FREE)              



              HYD. COND. ALONG ROWS FOR LAYER  10
 READING ON UNIT    3 WITH FORMAT: (FREE)              

   HORIZ. ANI. (COL./ROW) =   1.00000     FOR LAYER  10



            HORIZ. TO VERTICAL ANI. FOR LAYER  10
 READING ON UNIT    3 WITH FORMAT: (FREE)              



                   SPECIFIC STORAGE FOR LAYER  10
 READING ON UNIT    3 WITH FORMAT: (FREE)              



                     SPECIFIC YIELD FOR LAYER  10
 READING ON UNIT    3 WITH FORMAT: (FREE)              



              HYD. COND. ALONG ROWS FOR LAYER  11
 READING ON UNIT    3 WITH FORMAT: (FREE)              

   HORIZ. ANI. (COL./ROW) =   1.00000     FOR LAYER  11



            HORIZ. TO VERTICAL ANI. FOR LAYER  11
 READING ON UNIT    3 WITH FORMAT: (FREE)              



                   SPECIFIC STORAGE FOR LAYER  11
 READING ON UNIT    3 WITH FORMAT: (FREE)              



                     SPECIFIC YIELD FOR LAYER  11
 READING ON UNIT    3 WITH FORMAT: (FREE)              



              HYD. COND. ALONG ROWS FOR LAYER  12
 READING ON UNIT    3 WITH FORMAT: (FREE)              

   HORIZ. ANI. (COL./ROW) =   1.00000     FOR LAYER  12



            HORIZ. TO VERTICAL ANI. FOR LAYER  12
 READING ON UNIT    3 WITH FORMAT: (FREE)              



                   SPECIFIC STORAGE FOR LAYER  12
 READING ON UNIT    3 WITH FORMAT: (FREE)              



                     SPECIFIC YIELD FOR LAYER  12
 READING ON UNIT    3 WITH FORMAT: (FREE)              



              HYD. COND. ALONG ROWS FOR LAYER  13
 READING ON UNIT    3 WITH FORMAT: (FREE)              

   HORIZ. ANI. (COL./ROW) =   1.00000     FOR LAYER  13



            HORIZ. TO VERTICAL ANI. FOR LAYER  13
 READING ON UNIT    3 WITH FORMAT: (FREE)              



                   SPECIFIC STORAGE FOR LAYER  13
 READING ON UNIT    3 WITH FORMAT: (FREE)              



                     SPECIFIC YIELD FOR LAYER  13
 READING ON UNIT    3 WITH FORMAT: (FREE)              



              HYD. COND. ALONG ROWS FOR LAYER  14
 READING ON UNIT    3 WITH FORMAT: (FREE)              

   HORIZ. ANI. (COL./ROW) =   1.00000     FOR LAYER  14



            HORIZ. TO VERTICAL ANI. FOR LAYER  14
 READING ON UNIT    3 WITH FORMAT: (FREE)              



                   SPECIFIC STORAGE FOR LAYER  14
 READING ON UNIT    3 WITH FORMAT: (FREE)              



                     SPECIFIC YIELD FOR LAYER  14
 READING ON UNIT    3 WITH FORMAT: (FREE)              



              HYD. COND. ALONG ROWS FOR LAYER  15
 READING ON UNIT    3 WITH FORMAT: (FREE)              

   HORIZ. ANI. (COL./ROW) =   1.00000     FOR LAYER  15



            HORIZ. TO VERTICAL ANI. FOR LAYER  15
 READING ON UNIT    3 WITH FORMAT: (FREE)              



                   SPECIFIC STORAGE FOR LAYER  15
 READING ON UNIT    3 WITH FORMAT: (FREE)              



                     SPECIFIC YIELD FOR LAYER  15
 READING ON UNIT    3 WITH FORMAT: (FREE)              



              HYD. COND. ALONG ROWS FOR LAYER  16
 READING ON UNIT    3 WITH FORMAT: (FREE)              

   HORIZ. ANI. (COL./ROW) =   1.00000     FOR LAYER  16



            HORIZ. TO VERTICAL ANI. FOR LAYER  16
 READING ON UNIT    3 WITH FORMAT: (FREE)              



                   SPECIFIC STORAGE FOR LAYER  16
 READING ON UNIT    3 WITH FORMAT: (FREE)              



                     SPECIFIC YIELD FOR LAYER  16
 READING ON UNIT    3 WITH FORMAT: (FREE)              



              HYD. COND. ALONG ROWS FOR LAYER  17
 READING ON UNIT    3 WITH FORMAT: (FREE)              

   HORIZ. ANI. (COL./ROW) =   1.00000     FOR LAYER  17



            HORIZ. TO VERTICAL ANI. FOR LAYER  17
 READING ON UNIT    3 WITH FORMAT: (FREE)              



                   SPECIFIC STORAGE FOR LAYER  17
 READING ON UNIT    3 WITH FORMAT: (FREE)              



                     SPECIFIC YIELD FOR LAYER  17
 READING ON UNIT    3 WITH FORMAT: (FREE)              



              HYD. COND. ALONG ROWS FOR LAYER  18
 READING ON UNIT    3 WITH FORMAT: (FREE)              

   HORIZ. ANI. (COL./ROW) =   1.00000     FOR LAYER  18



            HORIZ. TO VERTICAL ANI. FOR LAYER  18
 READING ON UNIT    3 WITH FORMAT: (FREE)              



                   SPECIFIC STORAGE FOR LAYER  18
 READING ON UNIT    3 WITH FORMAT: (FREE)              



                     SPECIFIC YIELD FOR LAYER  18
 READING ON UNIT    3 WITH FORMAT: (FREE)              



              HYD. COND. ALONG ROWS FOR LAYER  19
 READING ON UNIT    3 WITH FORMAT: (FREE)              

   HORIZ. ANI. (COL./ROW) =   1.00000     FOR LAYER  19



            HORIZ. TO VERTICAL ANI. FOR LAYER  19
 READING ON UNIT    3 WITH FORMAT: (FREE)              



                   SPECIFIC STORAGE FOR LAYER  19
 READING ON UNIT    3 WITH FORMAT: (FREE)              



                     SPECIFIC YIELD FOR LAYER  19
 READING ON UNIT    3 WITH FORMAT: (FREE)              



              HYD. COND. ALONG ROWS FOR LAYER  20
 READING ON UNIT    3 WITH FORMAT: (FREE)              

   HORIZ. ANI. (COL./ROW) =   1.00000     FOR LAYER  20



            HORIZ. TO VERTICAL ANI. FOR LAYER  20
 READING ON UNIT    3 WITH FORMAT: (FREE)              



                   SPECIFIC STORAGE FOR LAYER  20
 READING ON UNIT    3 WITH FORMAT: (FREE)              



                     SPECIFIC YIELD FOR LAYER  20
 READING ON UNIT    3 WITH FORMAT: (FREE)              



              HYD. COND. ALONG ROWS FOR LAYER  21
 READING ON UNIT    3 WITH FORMAT: (FREE)              

   HORIZ. ANI. (COL./ROW) =   1.00000     FOR LAYER  21



            HORIZ. TO VERTICAL ANI. FOR LAYER  21
 READING ON UNIT    3 WITH FORMAT: (FREE)              



                   SPECIFIC STORAGE FOR LAYER  21
 READING ON UNIT    3 WITH FORMAT: (FREE)              



                     SPECIFIC YIELD FOR LAYER  21
 READING ON UNIT    3 WITH FORMAT: (FREE)              



              HYD. COND. ALONG ROWS FOR LAYER  22
 READING ON UNIT    3 WITH FORMAT: (FREE)              

   HORIZ. ANI. (COL./ROW) =   1.00000     FOR LAYER  22



            HORIZ. TO VERTICAL ANI. FOR LAYER  22
 READING ON UNIT    3 WITH FORMAT: (FREE)              



                   SPECIFIC STORAGE FOR LAYER  22
 READING ON UNIT    3 WITH FORMAT: (FREE)              



                     SPECIFIC YIELD FOR LAYER  22
 READING ON UNIT    3 WITH FORMAT: (FREE)              



              HYD. COND. ALONG ROWS FOR LAYER  23
 READING ON UNIT    3 WITH FORMAT: (FREE)              

   HORIZ. ANI. (COL./ROW) =   1.00000     FOR LAYER  23



            HORIZ. TO VERTICAL ANI. FOR LAYER  23
 READING ON UNIT    3 WITH FORMAT: (FREE)              



                   SPECIFIC STORAGE FOR LAYER  23
 READING ON UNIT    3 WITH FORMAT: (FREE)              



                     SPECIFIC YIELD FOR LAYER  23
 READING ON UNIT    3 WITH FORMAT: (FREE)              



              HYD. COND. ALONG ROWS FOR LAYER  24
 READING ON UNIT    3 WITH FORMAT: (FREE)              

   HORIZ. ANI. (COL./ROW) =   1.00000     FOR LAYER  24



            HORIZ. TO VERTICAL ANI. FOR LAYER  24
 READING ON UNIT    3 WITH FORMAT: (FREE)              



                   SPECIFIC STORAGE FOR LAYER  24
 READING ON UNIT    3 WITH FORMAT: (FREE)              



                     SPECIFIC YIELD FOR LAYER  24
 READING ON UNIT    3 WITH FORMAT: (FREE)              



              HYD. COND. ALONG ROWS FOR LAYER  25
 READING ON UNIT    3 WITH FORMAT: (FREE)              

   HORIZ. ANI. (COL./ROW) =   1.00000     FOR LAYER  25



            HORIZ. TO VERTICAL ANI. FOR LAYER  25
 READING ON UNIT    3 WITH FORMAT: (FREE)              



                   SPECIFIC STORAGE FOR LAYER  25
 READING ON UNIT    3 WITH FORMAT: (FREE)              



                     SPECIFIC YIELD FOR LAYER  25
 READING ON UNIT    3 WITH FORMAT: (FREE)              



              HYD. COND. ALONG ROWS FOR LAYER  26
 READING ON UNIT    3 WITH FORMAT: (FREE)              

   HORIZ. ANI. (COL./ROW) =   1.00000     FOR LAYER  26



            HORIZ. TO VERTICAL ANI. FOR LAYER  26
 READING ON UNIT    3 WITH FORMAT: (FREE)              



                   SPECIFIC STORAGE FOR LAYER  26
 READING ON UNIT    3 WITH FORMAT: (FREE)              



                     SPECIFIC YIELD FOR LAYER  26
 READING ON UNIT    3 WITH FORMAT: (FREE)              



              HYD. COND. ALONG ROWS FOR LAYER  27
 READING ON UNIT    3 WITH FORMAT: (FREE)              

   HORIZ. ANI. (COL./ROW) =   1.00000     FOR LAYER  27



            HORIZ. TO VERTICAL ANI. FOR LAYER  27
 READING ON UNIT    3 WITH FORMAT: (FREE)              



                   SPECIFIC STORAGE FOR LAYER  27
 READING ON UNIT    3 WITH FORMAT: (FREE)              



                     SPECIFIC YIELD FOR LAYER  27
 READING ON UNIT    3 WITH FORMAT: (FREE)              



              HYD. COND. ALONG ROWS FOR LAYER  28
 READING ON UNIT    3 WITH FORMAT: (FREE)              

   HORIZ. ANI. (COL./ROW) =   1.00000     FOR LAYER  28



            HORIZ. TO VERTICAL ANI. FOR LAYER  28
 READING ON UNIT    3 WITH FORMAT: (FREE)              



                   SPECIFIC STORAGE FOR LAYER  28
 READING ON UNIT    3 WITH FORMAT: (FREE)              



                     SPECIFIC YIELD FOR LAYER  28
 READING ON UNIT    3 WITH FORMAT: (FREE)              



              HYD. COND. ALONG ROWS FOR LAYER  29
 READING ON UNIT    3 WITH FORMAT: (FREE)              

   HORIZ. ANI. (COL./ROW) =   1.00000     FOR LAYER  29



            HORIZ. TO VERTICAL ANI. FOR LAYER  29
 READING ON UNIT    3 WITH FORMAT: (FREE)              



                   SPECIFIC STORAGE FOR LAYER  29
 READING ON UNIT    3 WITH FORMAT: (FREE)              



                     SPECIFIC YIELD FOR LAYER  29
 READING ON UNIT    3 WITH FORMAT: (FREE)              



              HYD. COND. ALONG ROWS FOR LAYER  30
 READING ON UNIT    3 WITH FORMAT: (FREE)              

   HORIZ. ANI. (COL./ROW) =   1.00000     FOR LAYER  30



            HORIZ. TO VERTICAL ANI. FOR LAYER  30
 READING ON UNIT    3 WITH FORMAT: (FREE)              



                   SPECIFIC STORAGE FOR LAYER  30
 READING ON UNIT    3 WITH FORMAT: (FREE)              



                     SPECIFIC YIELD FOR LAYER  30
 READING ON UNIT    3 WITH FORMAT: (FREE)              



              HYD. COND. ALONG ROWS FOR LAYER  31
 READING ON UNIT    3 WITH FORMAT: (FREE)              

   HORIZ. ANI. (COL./ROW) =   1.00000     FOR LAYER  31



            HORIZ. TO VERTICAL ANI. FOR LAYER  31
 READING ON UNIT    3 WITH FORMAT: (FREE)              



                   SPECIFIC STORAGE FOR LAYER  31
 READING ON UNIT    3 WITH FORMAT: (FREE)              



                     SPECIFIC YIELD FOR LAYER  31
 READING ON UNIT    3 WITH FORMAT: (FREE)              



              HYD. COND. ALONG ROWS FOR LAYER  32
 READING ON UNIT    3 WITH FORMAT: (FREE)              

   HORIZ. ANI. (COL./ROW) =   1.00000     FOR LAYER  32



            HORIZ. TO VERTICAL ANI. FOR LAYER  32
 READING ON UNIT    3 WITH FORMAT: (FREE)              



                   SPECIFIC STORAGE FOR LAYER  32
 READING ON UNIT    3 WITH FORMAT: (FREE)              



                     SPECIFIC YIELD FOR LAYER  32
 READING ON UNIT    3 WITH FORMAT: (FREE)              



              HYD. COND. ALONG ROWS FOR LAYER  33
 READING ON UNIT    3 WITH FORMAT: (FREE)              

   HORIZ. ANI. (COL./ROW) =   1.00000     FOR LAYER  33



            HORIZ. TO VERTICAL ANI. FOR LAYER  33
 READING ON UNIT    3 WITH FORMAT: (FREE)              



                   SPECIFIC STORAGE FOR LAYER  33
 READING ON UNIT    3 WITH FORMAT: (FREE)              



                     SPECIFIC YIELD FOR LAYER  33
 READING ON UNIT    3 WITH FORMAT: (FREE)              



              HYD. COND. ALONG ROWS FOR LAYER  34
 READING ON UNIT    3 WITH FORMAT: (FREE)              

   HORIZ. ANI. (COL./ROW) =   1.00000     FOR LAYER  34



            HORIZ. TO VERTICAL ANI. FOR LAYER  34
 READING ON UNIT    3 WITH FORMAT: (FREE)              



                   SPECIFIC STORAGE FOR LAYER  34
 READING ON UNIT    3 WITH FORMAT: (FREE)              



                     SPECIFIC YIELD FOR LAYER  34
 READING ON UNIT    3 WITH FORMAT: (FREE)              



              HYD. COND. ALONG ROWS FOR LAYER  35
 READING ON UNIT    3 WITH FORMAT: (FREE)              

   HORIZ. ANI. (COL./ROW) =   1.00000     FOR LAYER  35



            HORIZ. TO VERTICAL ANI. FOR LAYER  35
 READING ON UNIT    3 WITH FORMAT: (FREE)              



                   SPECIFIC STORAGE FOR LAYER  35
 READING ON UNIT    3 WITH FORMAT: (FREE)              



                     SPECIFIC YIELD FOR LAYER  35
 READING ON UNIT    3 WITH FORMAT: (FREE)              



              HYD. COND. ALONG ROWS FOR LAYER  36
 READING ON UNIT    3 WITH FORMAT: (FREE)              

   HORIZ. ANI. (COL./ROW) =   1.00000     FOR LAYER  36



            HORIZ. TO VERTICAL ANI. FOR LAYER  36
 READING ON UNIT    3 WITH FORMAT: (FREE)              



                   SPECIFIC STORAGE FOR LAYER  36
 READING ON UNIT    3 WITH FORMAT: (FREE)              



                     SPECIFIC YIELD FOR LAYER  36
 READING ON UNIT    3 WITH FORMAT: (FREE)              



              HYD. COND. ALONG ROWS FOR LAYER  37
 READING ON UNIT    3 WITH FORMAT: (FREE)              

   HORIZ. ANI. (COL./ROW) =   1.00000     FOR LAYER  37



            HORIZ. TO VERTICAL ANI. FOR LAYER  37
 READING ON UNIT    3 WITH FORMAT: (FREE)              



                   SPECIFIC STORAGE FOR LAYER  37
 READING ON UNIT    3 WITH FORMAT: (FREE)              



                     SPECIFIC YIELD FOR LAYER  37
 READING ON UNIT    3 WITH FORMAT: (FREE)              



              HYD. COND. ALONG ROWS FOR LAYER  38
 READING ON UNIT    3 WITH FORMAT: (FREE)              

   HORIZ. ANI. (COL./ROW) =   1.00000     FOR LAYER  38



            HORIZ. TO VERTICAL ANI. FOR LAYER  38
 READING ON UNIT    3 WITH FORMAT: (FREE)              



                   SPECIFIC STORAGE FOR LAYER  38
 READING ON UNIT    3 WITH FORMAT: (FREE)              



                     SPECIFIC YIELD FOR LAYER  38
 READING ON UNIT    3 WITH FORMAT: (FREE)              



              HYD. COND. ALONG ROWS FOR LAYER  39
 READING ON UNIT    3 WITH FORMAT: (FREE)              

   HORIZ. ANI. (COL./ROW) =   1.00000     FOR LAYER  39



            HORIZ. TO VERTICAL ANI. FOR LAYER  39
 READING ON UNIT    3 WITH FORMAT: (FREE)              



                   SPECIFIC STORAGE FOR LAYER  39
 READING ON UNIT    3 WITH FORMAT: (FREE)              



                     SPECIFIC YIELD FOR LAYER  39
 READING ON UNIT    3 WITH FORMAT: (FREE)              

    HYD. COND. ALONG ROWS =   4.00000     FOR LAYER  40

   HORIZ. ANI. (COL./ROW) =   1.00000     FOR LAYER  40

  HORIZ. TO VERTICAL ANI. =   1.00000     FOR LAYER  40

         SPECIFIC STORAGE =  1.000000E-04 FOR LAYER  40

           SPECIFIC YIELD =  8.000000E-02 FOR LAYER  40

 DRN -- DRAIN PACKAGE, VERSION 7, 5/2/2005 INPUT READ FROM UNIT   10
 #
 No named parameters
 MAXIMUM OF     75 ACTIVE DRAINS AT ONE TIME
 CELL-BY-CELL FLOWS WILL BE SAVED ON UNIT   40
 AUXILIARY DRAIN VARIABLE: IFACE           
 AUXILIARY DRAIN VARIABLE: CONDFACT        
 AUXILIARY DRAIN VARIABLE: CELLGRP         


     0 Drain parameters

 GHB -- GENERAL-HEAD BOUNDARY PACKAGE, VERSION 7, 5/2/2005
         INPUT READ FROM UNIT   11
 #
 No named parameters
 MAXIMUM OF     38 ACTIVE GHB CELLS AT ONE TIME
 CELL-BY-CELL FLOWS WILL BE SAVED ON UNIT   40
 AUXILIARY GHB VARIABLE: IFACE           
 AUXILIARY GHB VARIABLE: CONDFACT        
 AUXILIARY GHB VARIABLE: CELLGRP         


     0 GHB parameters

 WARNING READING LMT PACKAGE INPUT DATA:
 [STANDARD] HEADER NO LONGER SUPPORTED; [EXTENDED] HEADER USED INSTEAD.


 ***Link-MT3DMS Package v7***
 OPENING LINK-MT3DMS OUTPUT FILE: case2.hff                                                                                                                                                                                               
 ON UNIT NUMBER:   333
 FILE TYPE: UNFORMATTED
 HEADER OPTION: EXTENDED
 ***Link-MT3DMS Package v7***

1
                            STRESS PERIOD NO.    1, LENGTH =   10.00000    
                            -----------------------------------------------

                              NUMBER OF TIME STEPS =    10

                               MULTIPLIER FOR DELT =     1.000

                            INITIAL TIME STEP SIZE =   1.000000    

 DRAIN NO.  LAYER   ROW   COL     DRAIN EL.  CONDUCTANCE         IFACE           CONDFACT        CELLGRP         
 ----------------------------------------------------------------------------------------------------------------
      1      3      1     26       37.50           1.000           6.000           0.000          -1.000    
      2      4      1     27       36.50           1.000           6.000           0.000          -1.000    
      3      4      1     28       36.50           1.000           6.000           0.000          -1.000    
      4      5      1     29       35.50           1.000           6.000           0.000          -1.000    
      5      5      1     30       35.50           1.000           6.000           0.000          -1.000    
      6      6      1     31       34.50           1.000           6.000           0.000          -1.000    
      7      6      1     32       34.50           1.000           6.000           0.000          -1.000    
      8      7      1     33       33.50           1.000           6.000           0.000          -1.000    
      9      7      1     34       33.50           1.000           6.000           0.000          -1.000    
     10      8      1     35       32.50           1.000           6.000           0.000          -1.000    
     11      8      1     36       32.50           1.000           6.000           0.000          -1.000    
     12      9      1     37       31.50           1.000           6.000           0.000          -1.000    
     13      9      1     38       31.50           1.000           6.000           0.000          -1.000    
     14     10      1     39       30.50           1.000           6.000           0.000          -1.000    
     15     10      1     40       30.50           1.000           6.000           0.000          -1.000    
     16     11      1     41       29.50           1.000           6.000           0.000          -1.000    
     17     11      1     42       29.50           1.000           6.000           0.000          -1.000    
     18     12      1     43       28.50           1.000           6.000           0.000          -1.000    
     19     12      1     44       28.50           1.000           6.000           0.000          -1.000    
     20     13      1     45       27.50           1.000           6.000           0.000          -1.000    
     21     13      1     46       27.50           1.000           6.000           0.000          -1.000    
     22     14      1     47       26.50           1.000           6.000           0.000          -1.000    
     23     14      1     48       26.50           1.000           6.000           0.000          -1.000    
     24     15      1     49       25.50           1.000           6.000           0.000          -1.000    
     25     15      1     50       25.50           1.000           6.000           0.000          -1.000    
     26     16      1     51       24.50           1.000           6.000           0.000          -1.000    
     27     16      1     52       24.50           1.000           6.000           0.000          -1.000    
     28     17      1     53       23.50           1.000           6.000           0.000          -1.000    
     29     17      1     54       23.50           1.000           6.000           0.000          -1.000    
     30     18      1     55       22.50           1.000           6.000           0.000          -1.000    
     31     18      1     56       22.50           1.000           6.000           0.000          -1.000    
     32     19      1     57       21.50           1.000           6.000           0.000          -1.000    
     33     19      1     58       21.50           1.000           6.000           0.000          -1.000    
     34     20      1     59       20.50           1.000           6.000           0.000          -1.000    
     35     20      1     60       20.50           1.000           6.000           0.000          -1.000    
     36     21      1     61       19.50           1.000           6.000           0.000          -1.000    
     37     21      1     62       19.50           1.000           6.000           0.000          -1.000    
     38     22      1     63       18.50           1.000           6.000           0.000          -1.000    
     39     22      1     64       18.50           1.000           6.000           0.000          -1.000    
     40     23      1     65       17.50           1.000           6.000           0.000          -1.000    
     41     23      1     66       17.50           1.000           6.000           0.000          -1.000    
     42     24      1     67       16.50           1.000           6.000           0.000          -1.000    
     43     24      1     68       16.50           1.000           6.000           0.000          -1.000    
     44     25      1     69       15.50           1.000           6.000           0.000          -1.000    
     45     25      1     70       15.50           1.000           6.000           0.000          -1.000    
     46     26      1     71       14.50           1.000           6.000           0.000          -1.000    
     47     26      1     72       14.50           1.000           6.000           0.000          -1.000    
     48     27      1     73       13.50           1.000           6.000           0.000          -1.000    
     49     27      1     74       13.50           1.000           6.000           0.000          -1.000    
     50     28      1     75       12.50           1.000           6.000           0.000          -1.000    
     51     28      1     76       12.50           1.000           6.000           0.000          -1.000    
     52     29      1     77       11.50           1.000           6.000           0.000          -1.000    
     53     29      1     78       11.50           1.000           6.000           0.000          -1.000    
     54     30      1     79       10.50           1.000           6.000           0.000          -1.000    
     55     30      1     80       10.50           1.000           6.000           0.000          -1.000    
     56     31      1     81       9.500           1.000           6.000           0.000          -1.000    
     57     31      1     82       9.500           1.000           6.000           0.000          -1.000    
     58     32      1     83       8.500           1.000           6.000           0.000          -1.000    
     59     32      1     84       8.500           1.000           6.000           0.000          -1.000    
     60     33      1     85       7.500           1.000           6.000           0.000          -1.000    
     61     33      1     86       7.500           1.000           6.000           0.000          -1.000    
     62     34      1     87       6.500           1.000           6.000           0.000          -1.000    
     63     34      1     88       6.500           1.000           6.000           0.000          -1.000    
     64     35      1     89       5.500           1.000           6.000           0.000          -1.000    
     65     35      1     90       5.500           1.000           6.000           0.000          -1.000    
     66     36      1     91       4.500           1.000           6.000           0.000          -1.000    
     67     36      1     92       4.500           1.000           6.000           0.000          -1.000    
     68     37      1     93       3.500           1.000           6.000           0.000          -1.000    
     69     37      1     94       3.500           1.000           6.000           0.000          -1.000    
     70     38      1     95       2.500           1.000           6.000           0.000          -1.000    
     71     38      1     96       2.500           1.000           6.000           0.000          -1.000    
     72     39      1     97       1.500           1.000           6.000           0.000          -1.000    
     73     39      1     98       1.500           1.000           6.000           0.000          -1.000    
     74     40      1     99      0.5000           1.000           6.000           0.000          -1.000    
     75     40      1    100      0.5000           1.000           6.000           0.000          -1.000    

     75 DRAINS

 BOUND. NO. LAYER   ROW   COL     STAGE      CONDUCTANCE         IFACE           CONDFACT        CELLGRP         
 ----------------------------------------------------------------------------------------------------------------
      1      3      1     13       38.00          0.1000E+05       6.000           0.000          -1.000    
      2      4      1     13       38.00          0.1000E+05       6.000           0.000          -1.000    
      3      5      1     12       38.00          0.1000E+05       6.000           0.000          -1.000    
      4      6      1     12       38.00          0.1000E+05       6.000           0.000          -1.000    
      5      7      1     12       38.00          0.1000E+05       6.000           0.000          -1.000    
      6      8      1     11       38.00          0.1000E+05       6.000           0.000          -1.000    
      7      9      1     11       38.00          0.1000E+05       6.000           0.000          -1.000    
      8     10      1     11       38.00          0.1000E+05       6.000           0.000          -1.000    
      9     11      1     10       38.00          0.1000E+05       6.000           0.000          -1.000    
     10     12      1     10       38.00          0.1000E+05       6.000           0.000          -1.000    
     11     13      1     10       38.00          0.1000E+05       6.000           0.000          -1.000    
     12     14      1      9       38.00          0.1000E+05       6.000           0.000          -1.000    
     13     15      1      9       38.00          0.1000E+05       6.000           0.000          -1.000    
     14     16      1      9       38.00          0.1000E+05       6.000           0.000          -1.000    
     15     17      1      8       38.00          0.1000E+05       6.000           0.000          -1.000    
     16     18      1      8       38.00          0.1000E+05       6.000           0.000          -1.000    
     17     19      1      8       38.00          0.1000E+05       6.000           0.000          -1.000    
     18     20      1      7       38.00          0.1000E+05       6.000           0.000          -1.000    
     19     21      1      7       38.00          0.1000E+05       6.000           0.000          -1.000    
     20     22      1      7       38.00          0.1000E+05       6.000           0.000          -1.000    
     21     23      1      6       38.00          0.1000E+05       6.000           0.000          -1.000    
     22     24      1      6       38.00          0.1000E+05       6.000           0.000          -1.000    
     23     25      1      6       38.00          0.1000E+05       6.000           0.000          -1.000    
     24     26      1      5       38.00          0.1000E+05       6.000           0.000          -1.000    
     25     27      1      5       38.00          0.1000E+05       6.000           0.000          -1.000    
     26     28      1      5       38.00          0.1000E+05       6.000           0.000          -1.000    
     27     29      1      4       38.00          0.1000E+05       6.000           0.000          -1.000    
     28     30      1      4       38.00          0.1000E+05       6.000           0.000          -1.000    
     29     31      1      4       38.00          0.1000E+05       6.000           0.000          -1.000    
     30     32      1      3       38.00          0.1000E+05       6.000           0.000          -1.000    
     31     33      1      3       38.00          0.1000E+05       6.000           0.000          -1.000    
     32     34      1      3       38.00          0.1000E+05       6.000           0.000          -1.000    
     33     35      1      2       38.00          0.1000E+05       6.000           0.000          -1.000    
     34     36      1      2       38.00          0.1000E+05       6.000           0.000          -1.000    
     35     37      1      2       38.00          0.1000E+05       6.000           0.000          -1.000    
     36     38      1      1       38.00          0.1000E+05       6.000           0.000          -1.000    
     37     39      1      1       38.00          0.1000E+05       6.000           0.000          -1.000    
     38     40      1      1       38.00          0.1000E+05       6.000           0.000          -1.000    

     38 GHB CELLS
 
 SOLVING FOR HEAD 
                                                   Max.-Head-Change                         Max.-Flux-Residual
  Residual-Control   Outer-Iter.   Inner-Iter.     Column Row Layer    Maximum-Head-Change  Column Row Layer    Maximum-Flux-Residual          L2-NORM 
          0                 1          36           100    1    40      -0.3658771599E+02      99    1   40        -0.3750000000E+02      0.1912452614E+03
          0                 2          16            28    1     4      -0.1329455746E+01      97    1   39        -0.2370785203E+01      0.6361542971E+02
          0                 3          11            37    1     9      -0.3264481152E+00      32    1    7        -0.9166646230E+00      0.2215706321E+01
          0                 4           4            37    1     9      -0.2853907910E-01      41    1   11        -0.1718212146E+00      0.3309834363E+00
          0                 5           2            37    1     9       0.3064894170E-02      36    1    9        -0.2180676822E-01      0.3179609810E-01
          0                 6           1            43    1    39      -0.2665273885E-03      36    1    9        -0.1363481805E-02      0.3971150881E-02
          0                 7           1            43    1    39      -0.7408069758E-03      44    1   36        -0.2187950578E-03      0.3032034437E-02
          0                 8           1            42    1    40      -0.2175637543E-03      37    1    9         0.3538258520E-03      0.3042256579E-02
          0                 9           1            42    1    40      -0.5027196867E-03      44    1   36        -0.1754521230E-03      0.2476352907E-02
          0                10           1            42    1    40      -0.2040888484E-03      63    1   40        -0.2359269268E-03      0.2427283212E-02
                                                   Max.-Head-Change                         Max.-Flux-Residual
  Residual-Control   Outer-Iter.   Inner-Iter.     Column Row Layer    Maximum-Head-Change  Column Row Layer    Maximum-Flux-Residual          L2-NORM 
          0                11           1            42    1    40      -0.2776114490E-03      44    1   36        -0.1425115197E-03      0.2121609722E-02
          0                12           1            42    1    40      -0.2223395379E-03      36    1   12        -0.1689034547E-03      0.2013139679E-02
          0                13           1            42    1    40      -0.1833431780E-03      34    1   16        -0.1397252061E-03      0.1890593839E-02
          0                14           1            42    1    40      -0.2424533844E-03      36    1   12        -0.1255382015E-03      0.1754150454E-02
          0                15           1            42    1    40      -0.1372673351E-03      36    1   12         0.1486652306E-03      0.1703886849E-02
          0                16           1            40    1    40      -0.2452575856E-03      40    1   36        -0.9937854708E-04      0.1539939239E-02
          0                17           1            40    1    40      -0.1115365549E-03      34    1   16        -0.1391799206E-03      0.1524783784E-02
          0                18           1            40    1    40      -0.2250559814E-03      40    1   36        -0.8612376564E-04      0.1346971756E-02
          0                19           1            40    1    40      -0.9523332216E-04      34    1   16        -0.1274355418E-03      0.1342678391E-02
          0                20           1            39    1    39      -0.1925744319E-03      40    1   36        -0.7453976554E-04      0.1176036157E-02
                                                   Max.-Head-Change                         Max.-Flux-Residual
  Residual-Control   Outer-Iter.   Inner-Iter.     Column Row Layer    Maximum-Head-Change  Column Row Layer    Maximum-Flux-Residual          L2-NORM 
          0                21           1            39    1    39      -0.8363243638E-04      34    1   16        -0.1120556569E-03      0.1169415883E-02
          0                22           1            39    1    39      -0.1605823732E-03      40    1   36        -0.6475225564E-04      0.1028998286E-02
          0                23           1            38    1    40      -0.7459438760E-04      34    1   16        -0.9678077652E-04      0.1017187137E-02
          0                24           1            38    1    40      -0.1335960766E-03      32    1   10        -0.5752807056E-04      0.9038394821E-03
          0                25           1            38    1    40      -0.6702389219E-04      34    1   16        -0.8317699746E-04      0.8879309739E-03
          0                26           1            38    1    40      -0.1117851362E-03      32    1   10        -0.5175746378E-04      0.7970090969E-03
          0                27           1            38    1    40      -0.6047722782E-04      34    1   16        -0.7151360018E-04      0.7785914280E-03
          0                28           1            38    1    40      -0.9422363173E-04      32    1   10        -0.4652195366E-04      0.7051893859E-03
          0                29           1            36    1    40      -0.5472797543E-04      34    1   16        -0.6163342033E-04      0.6855187300E-03
          0                30           1            38    1    40      -0.8000132248E-04      32    1   10        -0.4180980460E-04      0.6256985445E-03
                                                   Max.-Head-Change                         Max.-Flux-Residual
  Residual-Control   Outer-Iter.   Inner-Iter.     Column Row Layer    Maximum-Head-Change  Column Row Layer    Maximum-Flux-Residual          L2-NORM 
          0                31           1            36    1    40      -0.4966815952E-04      34    1   16        -0.5328842678E-04      0.6056581636E-03
          0                32           1            38    1    40      -0.6838852996E-04      32    1   10        -0.3758050042E-04      0.5564320071E-03
          0                33           1            36    1    40      -0.4510597762E-04      34    1   16        -0.4623611017E-04      0.5366230869E-03
          0                34           1            38    1    38      -0.5885368398E-04      33    1   21        -0.3401418235E-04      0.4957346136E-03
          0                35           1            36    1    40      -0.4096603835E-04      34    1   16        -0.4026273672E-04      0.4765596028E-03
          0                36           1            38    1    38      -0.5095206951E-04      33    1   21        -0.3079243902E-04      0.4422919326E-03
          0                37           1            36    1    40      -0.3719224040E-04      34    1   16        -0.3518630939E-04      0.4240135716E-03
          0                38           1            38    1    38      -0.4434211461E-04      34    1   16        -0.2776821930E-04      0.3950488164E-03
          0                39           1            36    1    40      -0.3374237240E-04      34    1   16        -0.3085424413E-04      0.3778300033E-03
          0                40           1            38    1    38      -0.3876983726E-04      34    1   16        -0.2510746816E-04      0.3531491967E-03
                                                   Max.-Head-Change                         Max.-Flux-Residual
  Residual-Control   Outer-Iter.   Inner-Iter.     Column Row Layer    Maximum-Head-Change  Column Row Layer    Maximum-Flux-Residual          L2-NORM 
          0                41           1            35    1    37      -0.3059963809E-04      34    1   16        -0.2713992990E-04      0.3370802410E-03
          0                42           1            38    1    38      -0.3403666748E-04      34    1   16        -0.2268334276E-04      0.3158910014E-03
          0                43           1            35    1    37      -0.2773981922E-04      34    1   16        -0.2393921966E-04      0.3010089623E-03
          0                44           1            38    1    38      -0.2998681176E-04      34    1   16        -0.2047370350E-04      0.2826919394E-03
          0                45           1            35    1    37      -0.2511799125E-04      34    1   16        -0.2116707321E-04      0.2689949494E-03
          0                46           1            38    1    36      -0.2651470752E-04      34    1   16        -0.1846064686E-04      0.2530633665E-03
          0                47           1            35    1    37      -0.2271777216E-04      34    1   16        -0.1875440063E-04      0.2405216342E-03
          0                48           1            38    1    36      -0.2350699228E-04      34    1   16        -0.1662893231E-04      0.2265903735E-03
          0                49           1            35    1    37      -0.2052445395E-04      34    1   16        -0.1664518089E-04      0.2151548047E-03
          0                50           1            38    1    36      -0.2088156412E-04      34    1   16        -0.1496491728E-04      0.2029167140E-03
                                                   Max.-Head-Change                         Max.-Flux-Residual
  Residual-Control   Outer-Iter.   Inner-Iter.     Column Row Layer    Maximum-Head-Change  Column Row Layer    Maximum-Flux-Residual          L2-NORM 
          0                51           1            35    1    37      -0.1852422323E-04      34    1   16        -0.1479392392E-04      0.1925256821E-03
          0                52           1            38    1    36      -0.1857869557E-04      34    1   16        -0.1345592074E-04      0.1817334639E-03
          0                53           1            35    1    37      -0.1670374494E-04      34    1   16        -0.1316352268E-04      0.1723180650E-03
          0                54           1            38    1    36      -0.1655048486E-04      34    1   16        -0.1208990329E-04      0.1627704987E-03
          0                55           1            35    1    37      -0.1505001300E-04      34    1   16        -0.1172349477E-04      0.1542585351E-03
          0                56           1            38    1    36      -0.1475812856E-04      34    1   16        -0.1085534888E-04      0.1457900510E-03
          0                57           1            35    1    37      -0.1355034970E-04      34    1   16        -0.1044858368E-04      0.1381089545E-03
          0                58           1            38    1    36      -0.1316983872E-04      34    1   16        -0.9741254985E-05      0.1305817732E-03
          0                59           1            35    1    37      -0.1219248395E-04      34    1   16        -0.9317663171E-05      0.1236606615E-03
          0                60           1            32    1    38      -0.1177460382E-04      34    1   16        -0.8737171697E-05      0.1169588750E-03
                                                   Max.-Head-Change                         Max.-Flux-Residual
  Residual-Control   Outer-Iter.   Inner-Iter.     Column Row Layer    Maximum-Head-Change  Column Row Layer    Maximum-Flux-Residual          L2-NORM 
          0                61           1            35    1    37      -0.1096464566E-04      34    1   16        -0.8312897251E-05      0.1107299303E-03
          0                62           1            32    1    38      -0.1053547599E-04      34    1   16        -0.7833245832E-05      0.1047550373E-03

    ------------------------------------------------
       NWT REQUIRED           62 OUTER ITERATIONS 
       AND A TOTAL OF        126 INNER ITERATIONS.
    ------------------------------------------------

 OUTPUT CONTROL FOR STRESS PERIOD    1   TIME STEP    1
    PRINT BUDGET
    SAVE HEAD FOR ALL LAYERS
    SAVE DRAWDOWN FOR ALL LAYERS
    SAVE BUDGET
 UBDSV1 SAVING "         STORAGE" ON UNIT  40 AT TIME STEP  1, STRESS PERIOD   1
 UBDSV2 SAVING "   CONSTANT HEAD" ON UNIT  40 AT TIME STEP  1, STRESS PERIOD   1
 UBDSV1 SAVING "FLOW RIGHT FACE " ON UNIT  40 AT TIME STEP  1, STRESS PERIOD   1
 UBDSV1 SAVING "FLOW LOWER FACE " ON UNIT  40 AT TIME STEP  1, STRESS PERIOD   1
 UBDSV4 SAVING "          DRAINS" ON UNIT  40 AT TIME STEP  1, STRESS PERIOD   1
 UBDSV4 SAVING " HEAD DEP BOUNDS" ON UNIT  40 AT TIME STEP  1, STRESS PERIOD   1

 SAVING SATURATED THICKNESS AND FLOW TERMS ON UNIT  333 FOR MT3DMS
 BY THE LINK-MT3DMS PACKAGE V7 AT TIME STEP    1, STRESS PERIOD    1


 HEAD WILL BE SAVED ON UNIT    2 AT END OF TIME STEP    1, STRESS PERIOD    1

 DRAWDOWN WILL BE SAVED ON UNIT   13 AT END OF TIME STEP    1, STRESS PERIOD    1
1
  VOLUMETRIC BUDGET FOR ENTIRE MODEL AT END OF TIME STEP    1, STRESS PERIOD   1
  ------------------------------------------------------------------------------

     CUMULATIVE VOLUMES      L**3       RATES FOR THIS TIME STEP      L**3/T
     ------------------                 ------------------------

           IN:                                      IN:
           ---                                      ---
             STORAGE     =           6.4989               STORAGE     =           6.4989
       CONSTANT HEAD     =           0.0000         CONSTANT HEAD     =           0.0000
              DRAINS     =           0.0000                DRAINS     =           0.0000
     HEAD DEP BOUNDS     =          32.0555       HEAD DEP BOUNDS     =          32.0555

                TOTAL IN =          38.5545                  TOTAL IN =          38.5545

          OUT:                                     OUT:
          ----                                     ----
             STORAGE     =           0.0000               STORAGE     =           0.0000
       CONSTANT HEAD     =           0.0000         CONSTANT HEAD     =           0.0000
              DRAINS     =          38.5571                DRAINS     =          38.5571
     HEAD DEP BOUNDS     =           0.0000       HEAD DEP BOUNDS     =           0.0000

               TOTAL OUT =          38.5571                 TOTAL OUT =          38.5571

                IN - OUT =      -2.6245E-03                  IN - OUT =      -2.6245E-03

     PERCENT DISCREPANCY =          -0.01         PERCENT DISCREPANCY =          -0.01






         TIME SUMMARY AT END OF TIME STEP    1 IN STRESS PERIOD    1
                    SECONDS     MINUTES      HOURS       DAYS        YEARS
                    -----------------------------------------------------------
   TIME STEP LENGTH  86400.      1440.0      24.000      1.0000     2.73785E-03
 STRESS PERIOD TIME  86400.      1440.0      24.000      1.0000     2.73785E-03
         TOTAL TIME  86400.      1440.0      24.000      1.0000     2.73785E-03
1
 
 SOLVING FOR HEAD 
                                                   Max.-Head-Change                         Max.-Flux-Residual
  Residual-Control   Outer-Iter.   Inner-Iter.     Column Row Layer    Maximum-Head-Change  Column Row Layer    Maximum-Flux-Residual          L2-NORM 
          0                 1          16            31    1     6      -0.6805170870E+00      22    1    4        -0.1200001947E+00      0.5860861369E+00
          0                 2           6            30    1     7      -0.2223792846E+00      36    1    9        -0.7413239484E+00      0.2102542568E+01
          0                 3           2            30    1     5      -0.8351857194E-02      35    1    9         0.3604391078E-01      0.8908302528E-01
          0                 4           1            36    1     9      -0.6663700560E-03      20    1    4        -0.7837814825E-03      0.6363796841E-02
          0                 5           1            39    1    10      -0.6178714467E-03      35    1    9        -0.5071942863E-03      0.5747096064E-02
          0                 6           1            36    1     9      -0.8222813186E-03      39    1   13        -0.5634032113E-03      0.5393166756E-02
          0                 7           1            32    1     6      -0.3823266989E-03      40    1   12        -0.4755761411E-03      0.5087872379E-02
          0                 8           1            35    1    37      -0.8994936132E-03      39    1   13        -0.4015536543E-03      0.4650506560E-02
          0                 9           1            33    1     7      -0.2823185200E-03      38    1   13        -0.4564918616E-03      0.4447247855E-02
          0                10           1            35    1    39      -0.8175479240E-03      39    1   13        -0.3083181621E-03      0.3972677718E-02
                                                   Max.-Head-Change                         Max.-Flux-Residual
  Residual-Control   Outer-Iter.   Inner-Iter.     Column Row Layer    Maximum-Head-Change  Column Row Layer    Maximum-Flux-Residual          L2-NORM 
          0                11           1            35    1    39      -0.2367617923E-03      38    1   13        -0.3752308502E-03      0.3793013298E-02
          0                12           1            35    1    39      -0.6597438470E-03      39    1   13        -0.2513021692E-03      0.3399474137E-02
          0                13           1            35    1    39      -0.2113002031E-03      38    1   13        -0.2847581445E-03      0.3236771905E-02
          0                14           1            35    1    39      -0.5240356381E-03      39    1   13        -0.2123423496E-03      0.2937675829E-02
          0                15           1            35    1    39      -0.1909574918E-03      26    1   10        -0.2296604014E-03      0.2793502493E-02
          0                16           1            35    1    39      -0.4190052361E-03      39    1   13        -0.1835608335E-03      0.2562849263E-02
          0                17           1            35    1    39      -0.1742860108E-03      26    1   10        -0.1922661667E-03      0.2435845491E-02
          0                18           1            36    1    40      -0.3390872329E-03      39    1   13        -0.1610608865E-03      0.2253509974E-02
          0                19           1            36    1    40      -0.1602858660E-03      26    1   10        -0.1614052149E-03      0.2141343665E-02
          0                20           1            36    1    40      -0.2781103759E-03      39    1   13        -0.1427447905E-03      0.1993844669E-02
                                                   Max.-Head-Change                         Max.-Flux-Residual
  Residual-Control   Outer-Iter.   Inner-Iter.     Column Row Layer    Maximum-Head-Change  Column Row Layer    Maximum-Flux-Residual          L2-NORM 
          0                21           1            36    1    40      -0.1481930723E-03      26    1   10        -0.1361810291E-03      0.1894213647E-02
          0                22           1            36    1    40      -0.2309320430E-03      39    1   13        -0.1273705460E-03      0.1772494661E-02
          0                23           1            36    1    40      -0.1374467510E-03      39    1   13        -0.1163902938E-03      0.1683438968E-02
          0                24           1            36    1    40      -0.1938999260E-03      39    1   13        -0.1141634427E-03      0.1581301380E-02
          0                25           1            36    1    40      -0.1276820614E-03      39    1   13        -0.1022302616E-03      0.1501242903E-02
          0                26           1            36    1    40      -0.1643942817E-03      39    1   13        -0.1026186162E-03      0.1414349487E-02
          0                27           1            36    1    40      -0.1186511035E-03      39    1   13        -0.9032027276E-04      0.1342043592E-02
          0                28           1            36    1    40      -0.1405444430E-03      39    1   13        -0.9239566583E-04      0.1267288916E-02
          0                29           1            36    1    40      -0.1101900790E-03      39    1   13        -0.8014605334E-04      0.1201756854E-02
          0                30           1            36    1    40      -0.1210074512E-03      39    1   13        -0.8325821761E-04      0.1136865596E-02
                                                   Max.-Head-Change                         Max.-Flux-Residual
  Residual-Control   Outer-Iter.   Inner-Iter.     Column Row Layer    Maximum-Head-Change  Column Row Layer    Maximum-Flux-Residual          L2-NORM 
          0                31           1            36    1    40      -0.1021951131E-03      39    1   13        -0.7134521712E-04      0.1077331487E-02
          0                32           1            36    1    40      -0.1048093894E-03      39    1   13        -0.7503751226E-04      0.1020598395E-02
          0                33           1            36    1    40      -0.9460429134E-04      39    1   13        -0.6365696089E-04      0.9664373953E-03
          0                34           1            36    1    40      -0.9123516273E-04      39    1   13        -0.6760956165E-04      0.9165561278E-03
          0                35           1            36    1    40      -0.8738418722E-04      39    1   13        -0.5688932208E-04      0.8672542039E-03
          0                36           1            36    1    40      -0.7975261893E-04      39    1   13        -0.6088037981E-04      0.8232027690E-03
          0                37           1            36    1    40      -0.8051971248E-04      39    1   13        -0.5089764875E-04      0.7783265686E-03
          0                38           1            36    1    40      -0.6996023589E-04      39    1   13        -0.5477623841E-04      0.7392893990E-03
          0                39           1            36    1    40      -0.7400656465E-04      39    1   13        -0.4557028063E-04      0.6984642928E-03
          0                40           1            36    1    40      -0.6155082076E-04      39    1   13        -0.4923717336E-04      0.6637784342E-03
                                                   Max.-Head-Change                         Max.-Flux-Residual
  Residual-Control   Outer-Iter.   Inner-Iter.     Column Row Layer    Maximum-Head-Change  Column Row Layer    Maximum-Flux-Residual          L2-NORM 
          0                41           1            36    1    40      -0.6784573519E-04      39    1   13        -0.4081891990E-04      0.6266729088E-03
          0                42           1            36    1    40      -0.5428610157E-04      39    1   13        -0.4421265442E-04      0.5957903341E-03
          0                43           1            36    1    40      -0.6203970723E-04      39    1   13        -0.3657209481E-04      0.5621051949E-03
          0                44           1            36    1    40      -0.4797876160E-04      39    1   13        -0.3965872230E-04      0.5345660494E-03
          0                45           1            36    1    40      -0.5658998523E-04      39    1   13        -0.3277068083E-04      0.5040271486E-03
          0                46           1            36    1    40      -0.4247960354E-04      39    1   13        -0.3553612316E-04      0.4794405017E-03
          0                47           1            37    1    39      -0.5149831800E-04      39    1   13        -0.2936480797E-04      0.4517939934E-03
          0                48           1            36    1    40      -0.3766829175E-04      39    1   13        -0.3180912285E-04      0.4298238021E-03
          0                49           1            37    1    39      -0.4676533363E-04      39    1   13        -0.2631170486E-04      0.4048331232E-03
          0                50           1            36    1    40      -0.3344659951E-04      39    1   13        -0.2844477103E-04      0.3851878430E-03
                                                   Max.-Head-Change                         Max.-Flux-Residual
  Residual-Control   Outer-Iter.   Inner-Iter.     Column Row Layer    Maximum-Head-Change  Column Row Layer    Maximum-Flux-Residual          L2-NORM 
          0                51           1            37    1    39      -0.4237532272E-04      39    1   13        -0.2357417992E-04      0.3626318431E-03
          0                52           1            36    1    40      -0.2973343672E-04      39    1   13        -0.2541245630E-04      0.3450566207E-03
          0                53           1            38    1    40      -0.3832039675E-04      39    1   13        -0.2111953876E-04      0.3247283960E-03
          0                54           1            36    1    40      -0.2646115997E-04      39    1   13        -0.2268364443E-04      0.3089991028E-03
[...]
          0                18           1            36    1    38       0.1734502439E-04      38    1   14         0.2368037133E-04      0.2568748983E-03
          0                19           1            39    1    10       0.4532873145E-04      37    1   27         0.1510843191E-04      0.2402646773E-03
          0                20           1            36    1    38       0.1535642046E-04      38    1   14         0.1930333644E-04      0.2251590637E-03
                                                   Max.-Head-Change                         Max.-Flux-Residual
  Residual-Control   Outer-Iter.   Inner-Iter.     Column Row Layer    Maximum-Head-Change  Column Row Layer    Maximum-Flux-Residual          L2-NORM 
          0                21           1            39    1    10       0.3832232638E-04      37    1   27         0.1327530344E-04      0.2109646836E-03
          0                22           1            36    1    38       0.1354197186E-04      24    1   10         0.1594452209E-04      0.1978388663E-03
          0                23           1            39    1    10       0.3301849837E-04      37    1   27         0.1167169489E-04      0.1855363857E-03
          0                24           1            36    1    38       0.1190499970E-04      24    1   10         0.1413481175E-04      0.1740314550E-03
          0                25           1            39    1    10       0.2880676700E-04      37    1   27         0.1025693058E-04      0.1632702431E-03
          0                26           1            36    1    38       0.1044091739E-04      24    1   10         0.1252179510E-04      0.1531350434E-03
          0                27           1            39    1    10       0.2533187433E-04      37    1   27         0.9004295009E-05      0.1436689315E-03
          0                28           1            36    1    38       0.9139892899E-05      24    1   10         0.1108308618E-04      0.1347164558E-03
          0                29           1            39    1    10       0.2238171692E-04      37    1   27         0.7894485293E-05      0.1263633158E-03
          0                30           1            37    1    39       0.7991287372E-05      24    1   10         0.9798672124E-05      0.1184463751E-03
                                                   Max.-Head-Change                         Max.-Flux-Residual
  Residual-Control   Outer-Iter.   Inner-Iter.     Column Row Layer    Maximum-Head-Change  Column Row Layer    Maximum-Flux-Residual          L2-NORM 
          0                31           1            39    1    10       0.1982650243E-04      37    1   27         0.6912186507E-05      0.1110643777E-03
          0                32           1            33    1     8       0.6991796329E-05      24    1   10         0.8651616099E-05      0.1040616927E-03

    ------------------------------------------------
       NWT REQUIRED           32 OUTER ITERATIONS 
       AND A TOTAL OF         32 INNER ITERATIONS.
    ------------------------------------------------

 OUTPUT CONTROL FOR STRESS PERIOD    3   TIME STEP    7
    PRINT BUDGET
    SAVE HEAD FOR ALL LAYERS
    SAVE DRAWDOWN FOR ALL LAYERS
    SAVE BUDGET
 UBDSV1 SAVING "         STORAGE" ON UNIT  40 AT TIME STEP  7, STRESS PERIOD   3
 UBDSV2 SAVING "   CONSTANT HEAD" ON UNIT  40 AT TIME STEP  7, STRESS PERIOD   3
 UBDSV1 SAVING "FLOW RIGHT FACE " ON UNIT  40 AT TIME STEP  7, STRESS PERIOD   3
 UBDSV1 SAVING "FLOW LOWER FACE " ON UNIT  40 AT TIME STEP  7, STRESS PERIOD   3
 UBDSV4 SAVING "          DRAINS" ON UNIT  40 AT TIME STEP  7, STRESS PERIOD   3
 UBDSV4 SAVING " HEAD DEP BOUNDS" ON UNIT  40 AT TIME STEP  7, STRESS PERIOD   3

 SAVING SATURATED THICKNESS AND FLOW TERMS ON UNIT  333 FOR MT3DMS
 BY THE LINK-MT3DMS PACKAGE V7 AT TIME STEP    7, STRESS PERIOD    3


 HEAD WILL BE SAVED ON UNIT    2 AT END OF TIME STEP    7, STRESS PERIOD    3

 DRAWDOWN WILL BE SAVED ON UNIT   13 AT END OF TIME STEP    7, STRESS PERIOD    3
1
  VOLUMETRIC BUDGET FOR ENTIRE MODEL AT END OF TIME STEP    7, STRESS PERIOD   3
  ------------------------------------------------------------------------------

     CUMULATIVE VOLUMES      L**3       RATES FOR THIS TIME STEP      L**3/T
     ------------------                 ------------------------

           IN:                                      IN:
           ---                                      ---
             STORAGE     =          66.8052               STORAGE     =       1.6300E-09
       CONSTANT HEAD     =           0.0000         CONSTANT HEAD     =           0.0000
              DRAINS     =           0.0000                DRAINS     =           0.0000
     HEAD DEP BOUNDS     =         692.2043       HEAD DEP BOUNDS     =          34.9738

                TOTAL IN =         759.0095                  TOTAL IN =          34.9738

          OUT:                                     OUT:
          ----                                     ----
             STORAGE     =          59.2029               STORAGE     =       5.5329E-03
       CONSTANT HEAD     =           0.0000         CONSTANT HEAD     =           0.0000
              DRAINS     =         687.0167                DRAINS     =          34.9657
     HEAD DEP BOUNDS     =          12.8346       HEAD DEP BOUNDS     =           0.0000

               TOTAL OUT =         759.0543                 TOTAL OUT =          34.9712

                IN - OUT =      -4.4739E-02                  IN - OUT =       2.6283E-03

     PERCENT DISCREPANCY =          -0.01         PERCENT DISCREPANCY =           0.01






         TIME SUMMARY AT END OF TIME STEP    7 IN STRESS PERIOD    3
                    SECONDS     MINUTES      HOURS       DAYS        YEARS
                    -----------------------------------------------------------
   TIME STEP LENGTH  86400.      1440.0      24.000      1.0000     2.73785E-03
 STRESS PERIOD TIME 6.04800E+05  10080.      168.00      7.0000     1.91650E-02
         TOTAL TIME 2.33280E+06  38880.      648.00      27.000     7.39220E-02
1
 
 SOLVING FOR HEAD 
                                                   Max.-Head-Change                         Max.-Flux-Residual
  Residual-Control   Outer-Iter.   Inner-Iter.     Column Row Layer    Maximum-Head-Change  Column Row Layer    Maximum-Flux-Residual          L2-NORM 
          0                 1           1            39    1    10       0.2173812844E-03      39    1   11         0.2281996059E-03      0.9080817094E-03
          0                 2           1            39    1    10       0.1971441805E-03      31    1   11         0.8066764804E-04      0.4507487341E-03
          0                 3           1            39    1    10       0.7790139515E-04      34    1   14         0.4923094826E-04      0.3335519080E-03
          0                 4           1            39    1    10       0.5334387642E-04      31    1   11         0.4090060821E-04      0.2701423290E-03
          0                 5           1            39    1    10       0.8519891136E-04      34    1   14         0.2751711997E-04      0.2440090071E-03
          0                 6           1            39    1    10       0.2371047059E-04      31    1   11         0.3099151974E-04      0.2129752899E-03
          0                 7           1            39    1    10       0.8357846368E-04      34    1   14         0.1732110576E-04      0.1941744266E-03
          0                 8           1            39    1    10       0.1210514580E-04      31    1   11         0.2432846958E-04      0.1719205224E-03
          0                 9           1            39    1    10       0.6368214367E-04      34    1   14         0.1132310223E-04      0.1556242685E-03
          0                10           1            37    1    13       0.7886190431E-05      31    1   11         0.1792712555E-04      0.1397938607E-03
                                                   Max.-Head-Change                         Max.-Flux-Residual
  Residual-Control   Outer-Iter.   Inner-Iter.     Column Row Layer    Maximum-Head-Change  Column Row Layer    Maximum-Flux-Residual          L2-NORM 
          0                11           1            39    1    10       0.4192865932E-04      34    1   14         0.7981157523E-05      0.1261689426E-03
          0                12           1            36    1    40       0.6610629864E-05      25    1    9         0.1373315615E-04      0.1148175904E-03
          0                13           1            39    1    10       0.2975463219E-04      37    1   27         0.6455780294E-05      0.1044541816E-03

    ------------------------------------------------
       NWT REQUIRED           13 OUTER ITERATIONS 
       AND A TOTAL OF         13 INNER ITERATIONS.
    ------------------------------------------------

 OUTPUT CONTROL FOR STRESS PERIOD    3   TIME STEP    8
    PRINT BUDGET
    SAVE HEAD FOR ALL LAYERS
    SAVE DRAWDOWN FOR ALL LAYERS
    SAVE BUDGET
 UBDSV1 SAVING "         STORAGE" ON UNIT  40 AT TIME STEP  8, STRESS PERIOD   3
 UBDSV2 SAVING "   CONSTANT HEAD" ON UNIT  40 AT TIME STEP  8, STRESS PERIOD   3
 UBDSV1 SAVING "FLOW RIGHT FACE " ON UNIT  40 AT TIME STEP  8, STRESS PERIOD   3
 UBDSV1 SAVING "FLOW LOWER FACE " ON UNIT  40 AT TIME STEP  8, STRESS PERIOD   3
 UBDSV4 SAVING "          DRAINS" ON UNIT  40 AT TIME STEP  8, STRESS PERIOD   3
 UBDSV4 SAVING " HEAD DEP BOUNDS" ON UNIT  40 AT TIME STEP  8, STRESS PERIOD   3

 SAVING SATURATED THICKNESS AND FLOW TERMS ON UNIT  333 FOR MT3DMS
 BY THE LINK-MT3DMS PACKAGE V7 AT TIME STEP    8, STRESS PERIOD    3


 HEAD WILL BE SAVED ON UNIT    2 AT END OF TIME STEP    8, STRESS PERIOD    3

 DRAWDOWN WILL BE SAVED ON UNIT   13 AT END OF TIME STEP    8, STRESS PERIOD    3
1
  VOLUMETRIC BUDGET FOR ENTIRE MODEL AT END OF TIME STEP    8, STRESS PERIOD   3
  ------------------------------------------------------------------------------

     CUMULATIVE VOLUMES      L**3       RATES FOR THIS TIME STEP      L**3/T
     ------------------                 ------------------------

           IN:                                      IN:
           ---                                      ---
             STORAGE     =          66.8052               STORAGE     =       1.6196E-09
       CONSTANT HEAD     =           0.0000         CONSTANT HEAD     =           0.0000
              DRAINS     =           0.0000                DRAINS     =           0.0000
     HEAD DEP BOUNDS     =         727.1763       HEAD DEP BOUNDS     =          34.9719

                TOTAL IN =         793.9814                  TOTAL IN =          34.9719

          OUT:                                     OUT:
          ----                                     ----
             STORAGE     =          59.2041               STORAGE     =       1.2907E-03
       CONSTANT HEAD     =           0.0000         CONSTANT HEAD     =           0.0000
              DRAINS     =         721.9849                DRAINS     =          34.9682
     HEAD DEP BOUNDS     =          12.8346       HEAD DEP BOUNDS     =           0.0000

               TOTAL OUT =         794.0237                 TOTAL OUT =          34.9695

                IN - OUT =      -4.2297E-02                  IN - OUT =       2.4376E-03

     PERCENT DISCREPANCY =          -0.01         PERCENT DISCREPANCY =           0.01






         TIME SUMMARY AT END OF TIME STEP    8 IN STRESS PERIOD    3
                    SECONDS     MINUTES      HOURS       DAYS        YEARS
                    -----------------------------------------------------------
   TIME STEP LENGTH  86400.      1440.0      24.000      1.0000     2.73785E-03
 STRESS PERIOD TIME 6.91200E+05  11520.      192.00      8.0000     2.19028E-02
         TOTAL TIME 2.41920E+06  40320.      672.00      28.000     7.66598E-02
1
 
 SOLVING FOR HEAD 
                                                   Max.-Head-Change                         Max.-Flux-Residual
  Residual-Control   Outer-Iter.   Inner-Iter.     Column Row Layer    Maximum-Head-Change  Column Row Layer    Maximum-Flux-Residual          L2-NORM 
          0                 1           1            39    1    10       0.5323034039E-04      39    1   11         0.5197741029E-04      0.2314570830E-03
          0                 2           1            39    1    10       0.6034279115E-04      31    1   11         0.2130631401E-04      0.1505519942E-03
          0                 3           1            39    1    10       0.2557099305E-04      34    1   14         0.1453185826E-04      0.1288064091E-03
          0                 4           1            39    1    10       0.1737651652E-04      31    1   11         0.1246600920E-04      0.1132759382E-03
          0                 5           1            39    1    10       0.3968765864E-04      34    1   14         0.8830783543E-05      0.1066157273E-03

    ------------------------------------------------
       NWT REQUIRED            5 OUTER ITERATIONS 
       AND A TOTAL OF          5 INNER ITERATIONS.
    ------------------------------------------------

 OUTPUT CONTROL FOR STRESS PERIOD    3   TIME STEP    9
    PRINT BUDGET
    SAVE HEAD FOR ALL LAYERS
    SAVE DRAWDOWN FOR ALL LAYERS
    SAVE BUDGET
 UBDSV1 SAVING "         STORAGE" ON UNIT  40 AT TIME STEP  9, STRESS PERIOD   3
 UBDSV2 SAVING "   CONSTANT HEAD" ON UNIT  40 AT TIME STEP  9, STRESS PERIOD   3
 UBDSV1 SAVING "FLOW RIGHT FACE " ON UNIT  40 AT TIME STEP  9, STRESS PERIOD   3
 UBDSV1 SAVING "FLOW LOWER FACE " ON UNIT  40 AT TIME STEP  9, STRESS PERIOD   3
 UBDSV4 SAVING "          DRAINS" ON UNIT  40 AT TIME STEP  9, STRESS PERIOD   3
 UBDSV4 SAVING " HEAD DEP BOUNDS" ON UNIT  40 AT TIME STEP  9, STRESS PERIOD   3

 SAVING SATURATED THICKNESS AND FLOW TERMS ON UNIT  333 FOR MT3DMS
 BY THE LINK-MT3DMS PACKAGE V7 AT TIME STEP    9, STRESS PERIOD    3


 HEAD WILL BE SAVED ON UNIT    2 AT END OF TIME STEP    9, STRESS PERIOD    3

 DRAWDOWN WILL BE SAVED ON UNIT   13 AT END OF TIME STEP    9, STRESS PERIOD    3
1
  VOLUMETRIC BUDGET FOR ENTIRE MODEL AT END OF TIME STEP    9, STRESS PERIOD   3
  ------------------------------------------------------------------------------

     CUMULATIVE VOLUMES      L**3       RATES FOR THIS TIME STEP      L**3/T
     ------------------                 ------------------------

           IN:                                      IN:
           ---                                      ---
             STORAGE     =          66.8052               STORAGE     =       1.6243E-09
       CONSTANT HEAD     =           0.0000         CONSTANT HEAD     =           0.0000
              DRAINS     =           0.0000                DRAINS     =           0.0000
     HEAD DEP BOUNDS     =         762.1478       HEAD DEP BOUNDS     =          34.9715

                TOTAL IN =         828.9530                  TOTAL IN =          34.9715

          OUT:                                     OUT:
          ----                                     ----
             STORAGE     =          59.2044               STORAGE     =       2.8329E-04
       CONSTANT HEAD     =           0.0000         CONSTANT HEAD     =           0.0000
              DRAINS     =         756.9537                DRAINS     =          34.9688
     HEAD DEP BOUNDS     =          12.8346       HEAD DEP BOUNDS     =           0.0000

               TOTAL OUT =         828.9927                 TOTAL OUT =          34.9691

                IN - OUT =      -3.9734E-02                  IN - OUT =       2.4223E-03

     PERCENT DISCREPANCY =          -0.00         PERCENT DISCREPANCY =           0.01






         TIME SUMMARY AT END OF TIME STEP    9 IN STRESS PERIOD    3
                    SECONDS     MINUTES      HOURS       DAYS        YEARS
                    -----------------------------------------------------------
   TIME STEP LENGTH  86400.      1440.0      24.000      1.0000     2.73785E-03
 STRESS PERIOD TIME 7.77600E+05  12960.      216.00      9.0000     2.46407E-02
         TOTAL TIME 2.50560E+06  41760.      696.00      29.000     7.93977E-02
1
 
 SOLVING FOR HEAD 
                                                   Max.-Head-Change                         Max.-Flux-Residual
  Residual-Control   Outer-Iter.   Inner-Iter.     Column Row Layer    Maximum-Head-Change  Column Row Layer    Maximum-Flux-Residual          L2-NORM 
          0                 1           1            39    1    10       0.1768489357E-04      38    1   10         0.1663119937E-04      0.1103440727E-03

    ------------------------------------------------
       NWT REQUIRED            1 OUTER ITERATIONS 
       AND A TOTAL OF          1 INNER ITERATIONS.
    ------------------------------------------------

 OUTPUT CONTROL FOR STRESS PERIOD    3   TIME STEP   10
    PRINT BUDGET
    SAVE HEAD FOR ALL LAYERS
    SAVE DRAWDOWN FOR ALL LAYERS
    SAVE BUDGET
 UBDSV1 SAVING "         STORAGE" ON UNIT  40 AT TIME STEP 10, STRESS PERIOD   3
 UBDSV2 SAVING "   CONSTANT HEAD" ON UNIT  40 AT TIME STEP 10, STRESS PERIOD   3
 UBDSV1 SAVING "FLOW RIGHT FACE " ON UNIT  40 AT TIME STEP 10, STRESS PERIOD   3
 UBDSV1 SAVING "FLOW LOWER FACE " ON UNIT  40 AT TIME STEP 10, STRESS PERIOD   3
 UBDSV4 SAVING "          DRAINS" ON UNIT  40 AT TIME STEP 10, STRESS PERIOD   3
 UBDSV4 SAVING " HEAD DEP BOUNDS" ON UNIT  40 AT TIME STEP 10, STRESS PERIOD   3

 SAVING SATURATED THICKNESS AND FLOW TERMS ON UNIT  333 FOR MT3DMS
 BY THE LINK-MT3DMS PACKAGE V7 AT TIME STEP   10, STRESS PERIOD    3


 HEAD WILL BE SAVED ON UNIT    2 AT END OF TIME STEP   10, STRESS PERIOD    3

 DRAWDOWN WILL BE SAVED ON UNIT   13 AT END OF TIME STEP   10, STRESS PERIOD    3
1
  VOLUMETRIC BUDGET FOR ENTIRE MODEL AT END OF TIME STEP   10, STRESS PERIOD   3
  ------------------------------------------------------------------------------

     CUMULATIVE VOLUMES      L**3       RATES FOR THIS TIME STEP      L**3/T
     ------------------                 ------------------------

           IN:                                      IN:
           ---                                      ---
             STORAGE     =          66.8052               STORAGE     =       6.4418E-09
       CONSTANT HEAD     =           0.0000         CONSTANT HEAD     =           0.0000
              DRAINS     =           0.0000                DRAINS     =           0.0000
     HEAD DEP BOUNDS     =         797.1192       HEAD DEP BOUNDS     =          34.9714

                TOTAL IN =         863.9244                  TOTAL IN =          34.9714

          OUT:                                     OUT:
          ----                                     ----
             STORAGE     =          59.2044               STORAGE     =       2.6264E-05
       CONSTANT HEAD     =           0.0000         CONSTANT HEAD     =           0.0000
              DRAINS     =         791.9225                DRAINS     =          34.9688
     HEAD DEP BOUNDS     =          12.8346       HEAD DEP BOUNDS     =           0.0000

               TOTAL OUT =         863.9616                 TOTAL OUT =          34.9688

                IN - OUT =      -3.7170E-02                  IN - OUT =       2.5978E-03

     PERCENT DISCREPANCY =          -0.00         PERCENT DISCREPANCY =           0.01






         TIME SUMMARY AT END OF TIME STEP   10 IN STRESS PERIOD    3
                    SECONDS     MINUTES      HOURS       DAYS        YEARS
                    -----------------------------------------------------------
   TIME STEP LENGTH  86400.      1440.0      24.000      1.0000     2.73785E-03
 STRESS PERIOD TIME 8.64000E+05  14400.      240.00      10.000     2.73785E-02
         TOTAL TIME 2.59200E+06  43200.      720.00      30.000     8.21355E-02
1

 Run end date and time (yyyy/mm/dd hh:mm:ss): 2023/05/24 22:48:22
 Elapsed run time:  1.056 Seconds

