                                  MODFLOW-NWT-SWR1 
      U.S. GEOLOGICAL SURVEY MODULAR FINITE-DIFFERENCE GROUNDWATER-FLOW MODEL
                            VERSION 1.2.0 03/01/2020
                    BASED ON MODFLOW-2005 VERSION 1.12.00 02/03/2017

 LIST FILE: case3.out
                         UNIT    1

 OPENING case3.hed
 FILE TYPE:DATA(BINARY)   UNIT    2   STATUS:UNKNOWN
 FORMAT:BINARY                 ACCESS:SEQUENTIAL          

 OPENING case3.drw
 FILE TYPE:DATA(BINARY)   UNIT   14   STATUS:UNKNOWN
 FORMAT:BINARY                 ACCESS:SEQUENTIAL          

 OPENING case3.ccf
 FILE TYPE:DATA(BINARY)   UNIT   40   STATUS:UNKNOWN
 FORMAT:BINARY                 ACCESS:SEQUENTIAL          

 OPENING case3.lmt6
 FILE TYPE:LMT6   UNIT    3   STATUS:OLD    
 FORMAT:FORMATTED              ACCESS:SEQUENTIAL          

 OPENING case3.dis
 FILE TYPE:DIS   UNIT    4   STATUS:OLD    
 FORMAT:FORMATTED              ACCESS:SEQUENTIAL          

 OPENING case3.ba6
 FILE TYPE:BAS6   UNIT    7   STATUS:OLD    
 FORMAT:FORMATTED              ACCESS:SEQUENTIAL          

 OPENING case3.upw
 FILE TYPE:UPW   UNIT    8   STATUS:OLD    
 FORMAT:FORMATTED              ACCESS:SEQUENTIAL          

 OPENING case3.oc
 FILE TYPE:OC   UNIT    9   STATUS:OLD    
 FORMAT:FORMATTED              ACCESS:SEQUENTIAL          

 OPENING case3.wel
 FILE TYPE:WEL   UNIT   10   STATUS:OLD    
 FORMAT:FORMATTED              ACCESS:SEQUENTIAL          

 OPENING case3.drn
 FILE TYPE:DRN   UNIT   11   STATUS:OLD    
 FORMAT:FORMATTED              ACCESS:SEQUENTIAL          

 OPENING case3.ghb
 FILE TYPE:GHB   UNIT   12   STATUS:OLD    
 FORMAT:FORMATTED              ACCESS:SEQUENTIAL          

 OPENING case3.nwt
 FILE TYPE:NWT   UNIT   13   STATUS:OLD    
 FORMAT:FORMATTED              ACCESS:SEQUENTIAL          

 BAS -- BASIC PACKAGE, VERSION 1.2.0, 3/01/2020 INPUT READ FROM UNIT    7
 
 MODFLOW was compiled using mixed precision
 Precision of REAL variables:           6
 Precision of DOUBLE PRECISION variables:          15

 DISCRETIZATION INPUT DATA READ FROM UNIT    4
 # MF2K DISCRETIZATION FILE
 #
 #
 # NLAY NROW NCOL NPER TIMEUNITS LENUNITS
   40 LAYERS         1 ROWS       100 COLUMNS
    3 STRESS PERIOD(S) IN SIMULATION
 MODEL TIME UNIT IS DAYS
 MODEL LENGTH UNIT IS METERS
  Confining bed flag for each layer:
   0   0   0   0   0   0   0   0   0   0   0   0   0   0   0   0   0   0   0   0
   0   0   0   0   0   0   0   0   0   0   0   0   0   0   0   0   0   0   0   0

                     DELR =   1.00000    

                     DELC =   1.00000    

 TOP ELEVATION OF LAYER 1 =   40.0000    



             MODEL LAYER BOTTOM EL. FOR LAYER   1
 READING ON UNIT    4 WITH FORMAT: (FREE)              

   MODEL LAYER BOTTOM EL. =   38.0000     FOR LAYER   2



             MODEL LAYER BOTTOM EL. FOR LAYER   3
 READING ON UNIT    4 WITH FORMAT: (FREE)              

   MODEL LAYER BOTTOM EL. =   36.0000     FOR LAYER   4



             MODEL LAYER BOTTOM EL. FOR LAYER   5
 READING ON UNIT    4 WITH FORMAT: (FREE)              

   MODEL LAYER BOTTOM EL. =   34.0000     FOR LAYER   6



             MODEL LAYER BOTTOM EL. FOR LAYER   7
 READING ON UNIT    4 WITH FORMAT: (FREE)              

   MODEL LAYER BOTTOM EL. =   32.0000     FOR LAYER   8



             MODEL LAYER BOTTOM EL. FOR LAYER   9
 READING ON UNIT    4 WITH FORMAT: (FREE)              

   MODEL LAYER BOTTOM EL. =   30.0000     FOR LAYER  10



             MODEL LAYER BOTTOM EL. FOR LAYER  11
 READING ON UNIT    4 WITH FORMAT: (FREE)              

   MODEL LAYER BOTTOM EL. =   28.0000     FOR LAYER  12



             MODEL LAYER BOTTOM EL. FOR LAYER  13
 READING ON UNIT    4 WITH FORMAT: (FREE)              

   MODEL LAYER BOTTOM EL. =   26.0000     FOR LAYER  14



             MODEL LAYER BOTTOM EL. FOR LAYER  15
 READING ON UNIT    4 WITH FORMAT: (FREE)              

   MODEL LAYER BOTTOM EL. =   24.0000     FOR LAYER  16



             MODEL LAYER BOTTOM EL. FOR LAYER  17
 READING ON UNIT    4 WITH FORMAT: (FREE)              

   MODEL LAYER BOTTOM EL. =   22.0000     FOR LAYER  18



             MODEL LAYER BOTTOM EL. FOR LAYER  19
 READING ON UNIT    4 WITH FORMAT: (FREE)              

   MODEL LAYER BOTTOM EL. =   20.0000     FOR LAYER  20



             MODEL LAYER BOTTOM EL. FOR LAYER  21
 READING ON UNIT    4 WITH FORMAT: (FREE)              

   MODEL LAYER BOTTOM EL. =   18.0000     FOR LAYER  22



             MODEL LAYER BOTTOM EL. FOR LAYER  23
 READING ON UNIT    4 WITH FORMAT: (FREE)              

   MODEL LAYER BOTTOM EL. =   16.0000     FOR LAYER  24



             MODEL LAYER BOTTOM EL. FOR LAYER  25
 READING ON UNIT    4 WITH FORMAT: (FREE)              

   MODEL LAYER BOTTOM EL. =   14.0000     FOR LAYER  26



             MODEL LAYER BOTTOM EL. FOR LAYER  27
 READING ON UNIT    4 WITH FORMAT: (FREE)              

   MODEL LAYER BOTTOM EL. =   12.0000     FOR LAYER  28



             MODEL LAYER BOTTOM EL. FOR LAYER  29
 READING ON UNIT    4 WITH FORMAT: (FREE)              

   MODEL LAYER BOTTOM EL. =   10.0000     FOR LAYER  30



             MODEL LAYER BOTTOM EL. FOR LAYER  31
 READING ON UNIT    4 WITH FORMAT: (FREE)              

   MODEL LAYER BOTTOM EL. =   8.00000     FOR LAYER  32



             MODEL LAYER BOTTOM EL. FOR LAYER  33
 READING ON UNIT    4 WITH FORMAT: (FREE)              

   MODEL LAYER BOTTOM EL. =   6.00000     FOR LAYER  34



             MODEL LAYER BOTTOM EL. FOR LAYER  35
 READING ON UNIT    4 WITH FORMAT: (FREE)              

   MODEL LAYER BOTTOM EL. =   4.00000     FOR LAYER  36



             MODEL LAYER BOTTOM EL. FOR LAYER  37
 READING ON UNIT    4 WITH FORMAT: (FREE)              

   MODEL LAYER BOTTOM EL. =   2.00000     FOR LAYER  38



             MODEL LAYER BOTTOM EL. FOR LAYER  39
 READING ON UNIT    4 WITH FORMAT: (FREE)              

   MODEL LAYER BOTTOM EL. =   0.00000     FOR LAYER  40


 STRESS PERIOD     LENGTH       TIME STEPS     MULTIPLIER FOR DELT    SS FLAG
 ----------------------------------------------------------------------------
        1         10.00000         10                    1.000         TR
        2         10.00000         10                    1.000         TR
        3         10.00000         10                    1.000         TR

 TRANSIENT SIMULATION



 
 THE FREE FORMAT OPTION HAS BEEN SELECTED



                     BOUNDARY ARRAY FOR LAYER   1
 READING ON UNIT    7 WITH FORMAT: (FREE)              



                     BOUNDARY ARRAY FOR LAYER   2
 READING ON UNIT    7 WITH FORMAT: (FREE)              



                     BOUNDARY ARRAY FOR LAYER   3
 READING ON UNIT    7 WITH FORMAT: (FREE)              



                     BOUNDARY ARRAY FOR LAYER   4
 READING ON UNIT    7 WITH FORMAT: (FREE)              



                     BOUNDARY ARRAY FOR LAYER   5
 READING ON UNIT    7 WITH FORMAT: (FREE)              



                     BOUNDARY ARRAY FOR LAYER   6
 READING ON UNIT    7 WITH FORMAT: (FREE)              



                     BOUNDARY ARRAY FOR LAYER   7
 READING ON UNIT    7 WITH FORMAT: (FREE)              



                     BOUNDARY ARRAY FOR LAYER   8
 READING ON UNIT    7 WITH FORMAT: (FREE)              



                     BOUNDARY ARRAY FOR LAYER   9
 READING ON UNIT    7 WITH FORMAT: (FREE)              



                     BOUNDARY ARRAY FOR LAYER  10
 READING ON UNIT    7 WITH FORMAT: (FREE)              



                     BOUNDARY ARRAY FOR LAYER  11
 READING ON UNIT    7 WITH FORMAT: (FREE)              



                     BOUNDARY ARRAY FOR LAYER  12
 READING ON UNIT    7 WITH FORMAT: (FREE)              



                     BOUNDARY ARRAY FOR LAYER  13
 READING ON UNIT    7 WITH FORMAT: (FREE)              



                     BOUNDARY ARRAY FOR LAYER  14
 READING ON UNIT    7 WITH FORMAT: (FREE)              



                     BOUNDARY ARRAY FOR LAYER  15
 READING ON UNIT    7 WITH FORMAT: (FREE)              



                     BOUNDARY ARRAY FOR LAYER  16
 READING ON UNIT    7 WITH FORMAT: (FREE)              



                     BOUNDARY ARRAY FOR LAYER  17
 READING ON UNIT    7 WITH FORMAT: (FREE)              



                     BOUNDARY ARRAY FOR LAYER  18
 READING ON UNIT    7 WITH FORMAT: (FREE)              



                     BOUNDARY ARRAY FOR LAYER  19
 READING ON UNIT    7 WITH FORMAT: (FREE)              



                     BOUNDARY ARRAY FOR LAYER  20
 READING ON UNIT    7 WITH FORMAT: (FREE)              



                     BOUNDARY ARRAY FOR LAYER  21
 READING ON UNIT    7 WITH FORMAT: (FREE)              



                     BOUNDARY ARRAY FOR LAYER  22
 READING ON UNIT    7 WITH FORMAT: (FREE)              



                     BOUNDARY ARRAY FOR LAYER  23
 READING ON UNIT    7 WITH FORMAT: (FREE)              



                     BOUNDARY ARRAY FOR LAYER  24
 READING ON UNIT    7 WITH FORMAT: (FREE)              



                     BOUNDARY ARRAY FOR LAYER  25
 READING ON UNIT    7 WITH FORMAT: (FREE)              



                     BOUNDARY ARRAY FOR LAYER  26
 READING ON UNIT    7 WITH FORMAT: (FREE)              



                     BOUNDARY ARRAY FOR LAYER  27
 READING ON UNIT    7 WITH FORMAT: (FREE)              



                     BOUNDARY ARRAY FOR LAYER  28
 READING ON UNIT    7 WITH FORMAT: (FREE)              



                     BOUNDARY ARRAY FOR LAYER  29
 READING ON UNIT    7 WITH FORMAT: (FREE)              



                     BOUNDARY ARRAY FOR LAYER  30
 READING ON UNIT    7 WITH FORMAT: (FREE)              



                     BOUNDARY ARRAY FOR LAYER  31
 READING ON UNIT    7 WITH FORMAT: (FREE)              



                     BOUNDARY ARRAY FOR LAYER  32
 READING ON UNIT    7 WITH FORMAT: (FREE)              



                     BOUNDARY ARRAY FOR LAYER  33
 READING ON UNIT    7 WITH FORMAT: (FREE)              



                     BOUNDARY ARRAY FOR LAYER  34
 READING ON UNIT    7 WITH FORMAT: (FREE)              



                     BOUNDARY ARRAY FOR LAYER  35
 READING ON UNIT    7 WITH FORMAT: (FREE)              



                     BOUNDARY ARRAY FOR LAYER  36
 READING ON UNIT    7 WITH FORMAT: (FREE)              



                     BOUNDARY ARRAY FOR LAYER  37
 READING ON UNIT    7 WITH FORMAT: (FREE)              



                     BOUNDARY ARRAY FOR LAYER  38
 READING ON UNIT    7 WITH FORMAT: (FREE)              



                     BOUNDARY ARRAY FOR LAYER  39
 READING ON UNIT    7 WITH FORMAT: (FREE)              

           BOUNDARY ARRAY =              1 FOR LAYER  40

 AQUIFER HEAD WILL BE SET TO  -999.00     AT ALL NO-FLOW NODES (IBOUND=0).



                       INITIAL HEAD FOR LAYER   1
 READING ON UNIT    7 WITH FORMAT: (FREE)              



                       INITIAL HEAD FOR LAYER   2
 READING ON UNIT    7 WITH FORMAT: (FREE)              

             INITIAL HEAD =   38.0000     FOR LAYER   3



                       INITIAL HEAD FOR LAYER   4
 READING ON UNIT    7 WITH FORMAT: (FREE)              



                       INITIAL HEAD FOR LAYER   5
 READING ON UNIT    7 WITH FORMAT: (FREE)              



                       INITIAL HEAD FOR LAYER   6
 READING ON UNIT    7 WITH FORMAT: (FREE)              



                       INITIAL HEAD FOR LAYER   7
 READING ON UNIT    7 WITH FORMAT: (FREE)              



                       INITIAL HEAD FOR LAYER   8
 READING ON UNIT    7 WITH FORMAT: (FREE)              



                       INITIAL HEAD FOR LAYER   9
 READING ON UNIT    7 WITH FORMAT: (FREE)              



                       INITIAL HEAD FOR LAYER  10
 READING ON UNIT    7 WITH FORMAT: (FREE)              



                       INITIAL HEAD FOR LAYER  11
 READING ON UNIT    7 WITH FORMAT: (FREE)              



                       INITIAL HEAD FOR LAYER  12
 READING ON UNIT    7 WITH FORMAT: (FREE)              



                       INITIAL HEAD FOR LAYER  13
 READING ON UNIT    7 WITH FORMAT: (FREE)              



                       INITIAL HEAD FOR LAYER  14
 READING ON UNIT    7 WITH FORMAT: (FREE)              



                       INITIAL HEAD FOR LAYER  15
 READING ON UNIT    7 WITH FORMAT: (FREE)              



                       INITIAL HEAD FOR LAYER  16
 READING ON UNIT    7 WITH FORMAT: (FREE)              



                       INITIAL HEAD FOR LAYER  17
 READING ON UNIT    7 WITH FORMAT: (FREE)              



                       INITIAL HEAD FOR LAYER  18
 READING ON UNIT    7 WITH FORMAT: (FREE)              



                       INITIAL HEAD FOR LAYER  19
 READING ON UNIT    7 WITH FORMAT: (FREE)              



                       INITIAL HEAD FOR LAYER  20
 READING ON UNIT    7 WITH FORMAT: (FREE)              



                       INITIAL HEAD FOR LAYER  21
 READING ON UNIT    7 WITH FORMAT: (FREE)              



                       INITIAL HEAD FOR LAYER  22
 READING ON UNIT    7 WITH FORMAT: (FREE)              



                       INITIAL HEAD FOR LAYER  23
 READING ON UNIT    7 WITH FORMAT: (FREE)              



                       INITIAL HEAD FOR LAYER  24
 READING ON UNIT    7 WITH FORMAT: (FREE)              



                       INITIAL HEAD FOR LAYER  25
 READING ON UNIT    7 WITH FORMAT: (FREE)              



                       INITIAL HEAD FOR LAYER  26
 READING ON UNIT    7 WITH FORMAT: (FREE)              



                       INITIAL HEAD FOR LAYER  27
 READING ON UNIT    7 WITH FORMAT: (FREE)              



                       INITIAL HEAD FOR LAYER  28
 READING ON UNIT    7 WITH FORMAT: (FREE)              



                       INITIAL HEAD FOR LAYER  29
 READING ON UNIT    7 WITH FORMAT: (FREE)              



                       INITIAL HEAD FOR LAYER  30
 READING ON UNIT    7 WITH FORMAT: (FREE)              



                       INITIAL HEAD FOR LAYER  31
 READING ON UNIT    7 WITH FORMAT: (FREE)              



                       INITIAL HEAD FOR LAYER  32
 READING ON UNIT    7 WITH FORMAT: (FREE)              



                       INITIAL HEAD FOR LAYER  33
 READING ON UNIT    7 WITH FORMAT: (FREE)              



                       INITIAL HEAD FOR LAYER  34
 READING ON UNIT    7 WITH FORMAT: (FREE)              



                       INITIAL HEAD FOR LAYER  35
 READING ON UNIT    7 WITH FORMAT: (FREE)              



                       INITIAL HEAD FOR LAYER  36
 READING ON UNIT    7 WITH FORMAT: (FREE)              



                       INITIAL HEAD FOR LAYER  37
 READING ON UNIT    7 WITH FORMAT: (FREE)              



                       INITIAL HEAD FOR LAYER  38
 READING ON UNIT    7 WITH FORMAT: (FREE)              



                       INITIAL HEAD FOR LAYER  39
 READING ON UNIT    7 WITH FORMAT: (FREE)              

             INITIAL HEAD =   38.0000     FOR LAYER  40

 OUTPUT CONTROL IS SPECIFIED ONLY AT TIME STEPS FOR WHICH OUTPUT IS DESIRED
 COMPACT CELL-BY-CELL BUDGET FILES WILL BE WRITTEN
 AUXILIARY DATA WILL BE SAVED IN CELL-BY-CELL BUDGET FILES
 HEAD PRINT FORMAT CODE IS   0    DRAWDOWN PRINT FORMAT CODE IS   0
 HEADS WILL BE SAVED ON UNIT    2    DRAWDOWNS WILL BE SAVED ON UNIT   14
 #

 NWT1 -- Newton Solver, VERSION 1.2.0, 3/01/2020
         INPUT READ FROM UNIT 13

 SIMPLE OPTION:
 DEFAULT SOLVER INPUT VALUES REFLECT NEARLY LINEAR MODEL
 ***XMD linear solver will be used***
 
   CONVERGENCE CRITERION OF   0.100000E-03 FOR HEAD SOLUTION
   AND A TOLERANCE OF   0.100000E-03 FOR FLOW SOLUTION AND 
   A MAXIMUM OF  5000 OUTER ITERATIONS. 


   D-B-D REDUCTION FACTOR OF    0.970000E+00 AND 
   A D-B-D INCREASE FACTOR OF    0.100000E-03 AND 
   A D-B-D RELAXATION OF    0.000000E+00 AND 
   A MOMENTUM FACTOR OF    0.000000E+00 .


 ***BACKTRACKING IS INACTIVE***
 XMD -- LINEAR SOLUTION BY XMD PACKAGE VERSION 1.30
     BY MOTOMU IBARAKI, OHIO STATE UNIVERSITY, COLOMBUS, OH
                 INPUT READ FROM UNIT 13
 ACCELERATION METHOD                    (IACL) =         1
 NODE ORDERING FLAG                   (NORDER) =         0
 LEVEL OF FILL                         (LEVEL) =         1
 MAXIMUM NUMBER OF ORTHOGONALIZATIONS  (NORTH) =         5
 INDEX FOR USING REDUCED SYSTEM      (IREDSYS) =         1
 RESID. REDUCTION CONVERGE CRITERION  (RRCTOL) =  0.000000E+00
 INDEX FOR USING DROP TOLERANCE     (IDROPTOL) =         1
 DROP TOLERANCE VALUE                  (EPSRN) =  0.500000E-02
 CONVERGENCE CRITERIA OF           (HCLOSEXMD) =  0.100000E-02
 MAX. NUMBER OF LINEAR ITERATIONS  (MXITERXMD) =        50


 UPW1 -- UPSTREAM WEIGHTING FLOW PACKAGE, VERSION 1.2.0, 3/01/2020
         INPUT READ FROM UNIT  8

 CELL-BY-CELL FLOWS WILL BE SAVED ON UNIT   40
 No named parameters

   LAYER FLAGS:
 LAYER       LAYTYP          LAYAVG    CHANI           LAYVKA           LAYWET
 ---------------------------------------------------------------------------
    1             1             0    -1.000E+00             1             0
    2             1             0    -1.000E+00             1             0
    3             1             0    -1.000E+00             1             0
    4             1             0    -1.000E+00             1             0
    5             1             0    -1.000E+00             1             0
    6             1             0    -1.000E+00             1             0
    7             1             0    -1.000E+00             1             0
    8             1             0    -1.000E+00             1             0
    9             1             0    -1.000E+00             1             0
   10             1             0    -1.000E+00             1             0
   11             1             0    -1.000E+00             1             0
   12             1             0    -1.000E+00             1             0
   13             1             0    -1.000E+00             1             0
   14             1             0    -1.000E+00             1             0
   15             1             0    -1.000E+00             1             0
   16             1             0    -1.000E+00             1             0
   17             1             0    -1.000E+00             1             0
   18             1             0    -1.000E+00             1             0
   19             1             0    -1.000E+00             1             0
   20             1             0    -1.000E+00             1             0
   21             1             0    -1.000E+00             1             0
   22             1             0    -1.000E+00             1             0
   23             1             0    -1.000E+00             1             0
   24             1             0    -1.000E+00             1             0
   25             1             0    -1.000E+00             1             0
   26             1             0    -1.000E+00             1             0
   27             1             0    -1.000E+00             1             0
   28             1             0    -1.000E+00             1             0
   29             1             0    -1.000E+00             1             0
   30             1             0    -1.000E+00             1             0
   31             1             0    -1.000E+00             1             0
   32             1             0    -1.000E+00             1             0
   33             1             0    -1.000E+00             1             0
   34             1             0    -1.000E+00             1             0
   35             1             0    -1.000E+00             1             0
   36             1             0    -1.000E+00             1             0
   37             1             0    -1.000E+00             1             0
   38             1             0    -1.000E+00             1             0
   39             1             0    -1.000E+00             1             0
   40             1             0    -1.000E+00             1             0

   INTERPRETATION OF LAYER FLAGS:
                        INTERBLOCK     HORIZONTAL    DATA IN
         LAYER TYPE   TRANSMISSIVITY   ANISOTROPY   ARRAY VKA   WETTABILITY
 LAYER   (LAYTYP)        (LAYAVG)      (CHANI)     (LAYVKA)       (LAYWET)
 ---------------------------------------------------------------------------
    1   CONVERTIBLE      HARMONIC      VARIABLE    ANISOTROPY  NON-WETTABLE
    2   CONVERTIBLE      HARMONIC      VARIABLE    ANISOTROPY  NON-WETTABLE
    3   CONVERTIBLE      HARMONIC      VARIABLE    ANISOTROPY  NON-WETTABLE
    4   CONVERTIBLE      HARMONIC      VARIABLE    ANISOTROPY  NON-WETTABLE
    5   CONVERTIBLE      HARMONIC      VARIABLE    ANISOTROPY  NON-WETTABLE
    6   CONVERTIBLE      HARMONIC      VARIABLE    ANISOTROPY  NON-WETTABLE
    7   CONVERTIBLE      HARMONIC      VARIABLE    ANISOTROPY  NON-WETTABLE
    8   CONVERTIBLE      HARMONIC      VARIABLE    ANISOTROPY  NON-WETTABLE
    9   CONVERTIBLE      HARMONIC      VARIABLE    ANISOTROPY  NON-WETTABLE
   10   CONVERTIBLE      HARMONIC      VARIABLE    ANISOTROPY  NON-WETTABLE
   11   CONVERTIBLE      HARMONIC      VARIABLE    ANISOTROPY  NON-WETTABLE
   12   CONVERTIBLE      HARMONIC      VARIABLE    ANISOTROPY  NON-WETTABLE
   13   CONVERTIBLE      HARMONIC      VARIABLE    ANISOTROPY  NON-WETTABLE
   14   CONVERTIBLE      HARMONIC      VARIABLE    ANISOTROPY  NON-WETTABLE
   15   CONVERTIBLE      HARMONIC      VARIABLE    ANISOTROPY  NON-WETTABLE
   16   CONVERTIBLE      HARMONIC      VARIABLE    ANISOTROPY  NON-WETTABLE
   17   CONVERTIBLE      HARMONIC      VARIABLE    ANISOTROPY  NON-WETTABLE
   18   CONVERTIBLE      HARMONIC      VARIABLE    ANISOTROPY  NON-WETTABLE
   19   CONVERTIBLE      HARMONIC      VARIABLE    ANISOTROPY  NON-WETTABLE
   20   CONVERTIBLE      HARMONIC      VARIABLE    ANISOTROPY  NON-WETTABLE
   21   CONVERTIBLE      HARMONIC      VARIABLE    ANISOTROPY  NON-WETTABLE
   22   CONVERTIBLE      HARMONIC      VARIABLE    ANISOTROPY  NON-WETTABLE
   23   CONVERTIBLE      HARMONIC      VARIABLE    ANISOTROPY  NON-WETTABLE
   24   CONVERTIBLE      HARMONIC      VARIABLE    ANISOTROPY  NON-WETTABLE
   25   CONVERTIBLE      HARMONIC      VARIABLE    ANISOTROPY  NON-WETTABLE
   26   CONVERTIBLE      HARMONIC      VARIABLE    ANISOTROPY  NON-WETTABLE
   27   CONVERTIBLE      HARMONIC      VARIABLE    ANISOTROPY  NON-WETTABLE
   28   CONVERTIBLE      HARMONIC      VARIABLE    ANISOTROPY  NON-WETTABLE
   29   CONVERTIBLE      HARMONIC      VARIABLE    ANISOTROPY  NON-WETTABLE
   30   CONVERTIBLE      HARMONIC      VARIABLE    ANISOTROPY  NON-WETTABLE
   31   CONVERTIBLE      HARMONIC      VARIABLE    ANISOTROPY  NON-WETTABLE
   32   CONVERTIBLE      HARMONIC      VARIABLE    ANISOTROPY  NON-WETTABLE
   33   CONVERTIBLE      HARMONIC      VARIABLE    ANISOTROPY  NON-WETTABLE
   34   CONVERTIBLE      HARMONIC      VARIABLE    ANISOTROPY  NON-WETTABLE
   35   CONVERTIBLE      HARMONIC      VARIABLE    ANISOTROPY  NON-WETTABLE
   36   CONVERTIBLE      HARMONIC      VARIABLE    ANISOTROPY  NON-WETTABLE
   37   CONVERTIBLE      HARMONIC      VARIABLE    ANISOTROPY  NON-WETTABLE
   38   CONVERTIBLE      HARMONIC      VARIABLE    ANISOTROPY  NON-WETTABLE
   39   CONVERTIBLE      HARMONIC      VARIABLE    ANISOTROPY  NON-WETTABLE
   40   CONVERTIBLE      HARMONIC      VARIABLE    ANISOTROPY  NON-WETTABLE



              HYD. COND. ALONG ROWS FOR LAYER   1
 READING ON UNIT    8 WITH FORMAT: (FREE)              

   HORIZ. ANI. (COL./ROW) =   1.00000     FOR LAYER   1



            HORIZ. TO VERTICAL ANI. FOR LAYER   1
 READING ON UNIT    8 WITH FORMAT: (FREE)              



                   SPECIFIC STORAGE FOR LAYER   1
 READING ON UNIT    8 WITH FORMAT: (FREE)              



                     SPECIFIC YIELD FOR LAYER   1
 READING ON UNIT    8 WITH FORMAT: (FREE)              



              HYD. COND. ALONG ROWS FOR LAYER   2
 READING ON UNIT    8 WITH FORMAT: (FREE)              

   HORIZ. ANI. (COL./ROW) =   1.00000     FOR LAYER   2



            HORIZ. TO VERTICAL ANI. FOR LAYER   2
 READING ON UNIT    8 WITH FORMAT: (FREE)              



                   SPECIFIC STORAGE FOR LAYER   2
 READING ON UNIT    8 WITH FORMAT: (FREE)              



                     SPECIFIC YIELD FOR LAYER   2
 READING ON UNIT    8 WITH FORMAT: (FREE)              



              HYD. COND. ALONG ROWS FOR LAYER   3
 READING ON UNIT    8 WITH FORMAT: (FREE)              

   HORIZ. ANI. (COL./ROW) =   1.00000     FOR LAYER   3



            HORIZ. TO VERTICAL ANI. FOR LAYER   3
 READING ON UNIT    8 WITH FORMAT: (FREE)              



                   SPECIFIC STORAGE FOR LAYER   3
 READING ON UNIT    8 WITH FORMAT: (FREE)              



                     SPECIFIC YIELD FOR LAYER   3
 READING ON UNIT    8 WITH FORMAT: (FREE)              



              HYD. COND. ALONG ROWS FOR LAYER   4
 READING ON UNIT    8 WITH FORMAT: (FREE)              

   HORIZ. ANI. (COL./ROW) =   1.00000     FOR LAYER   4



            HORIZ. TO VERTICAL ANI. FOR LAYER   4
 READING ON UNIT    8 WITH FORMAT: (FREE)              



                   SPECIFIC STORAGE FOR LAYER   4
 READING ON UNIT    8 WITH FORMAT: (FREE)              



                     SPECIFIC YIELD FOR LAYER   4
 READING ON UNIT    8 WITH FORMAT: (FREE)              



              HYD. COND. ALONG ROWS FOR LAYER   5
 READING ON UNIT    8 WITH FORMAT: (FREE)              

   HORIZ. ANI. (COL./ROW) =   1.00000     FOR LAYER   5



            HORIZ. TO VERTICAL ANI. FOR LAYER   5
 READING ON UNIT    8 WITH FORMAT: (FREE)              



                   SPECIFIC STORAGE FOR LAYER   5
 READING ON UNIT    8 WITH FORMAT: (FREE)              



                     SPECIFIC YIELD FOR LAYER   5
 READING ON UNIT    8 WITH FORMAT: (FREE)              



              HYD. COND. ALONG ROWS FOR LAYER   6
 READING ON UNIT    8 WITH FORMAT: (FREE)              

   HORIZ. ANI. (COL./ROW) =   1.00000     FOR LAYER   6



            HORIZ. TO VERTICAL ANI. FOR LAYER   6
 READING ON UNIT    8 WITH FORMAT: (FREE)              



                   SPECIFIC STORAGE FOR LAYER   6
 READING ON UNIT    8 WITH FORMAT: (FREE)              



                     SPECIFIC YIELD FOR LAYER   6
 READING ON UNIT    8 WITH FORMAT: (FREE)              



              HYD. COND. ALONG ROWS FOR LAYER   7
 READING ON UNIT    8 WITH FORMAT: (FREE)              

   HORIZ. ANI. (COL./ROW) =   1.00000     FOR LAYER   7



            HORIZ. TO VERTICAL ANI. FOR LAYER   7
 READING ON UNIT    8 WITH FORMAT: (FREE)              



                   SPECIFIC STORAGE FOR LAYER   7
 READING ON UNIT    8 WITH FORMAT: (FREE)              



                     SPECIFIC YIELD FOR LAYER   7
 READING ON UNIT    8 WITH FORMAT: (FREE)              



              HYD. COND. ALONG ROWS FOR LAYER   8
 READING ON UNIT    8 WITH FORMAT: (FREE)              

   HORIZ. ANI. (COL./ROW) =   1.00000     FOR LAYER   8



            HORIZ. TO VERTICAL ANI. FOR LAYER   8
 READING ON UNIT    8 WITH FORMAT: (FREE)              



                   SPECIFIC STORAGE FOR LAYER   8
 READING ON UNIT    8 WITH FORMAT: (FREE)              



                     SPECIFIC YIELD FOR LAYER   8
 READING ON UNIT    8 WITH FORMAT: (FREE)              



              HYD. COND. ALONG ROWS FOR LAYER   9
 READING ON UNIT    8 WITH FORMAT: (FREE)              

   HORIZ. ANI. (COL./ROW) =   1.00000     FOR LAYER   9



            HORIZ. TO VERTICAL ANI. FOR LAYER   9
 READING ON UNIT    8 WITH FORMAT: (FREE)              



                   SPECIFIC STORAGE FOR LAYER   9
 READING ON UNIT    8 WITH FORMAT: (FREE)              



                     SPECIFIC YIELD FOR LAYER   9
 READING ON UNIT    8 WITH FORMAT: (FREE)              



              HYD. COND. ALONG ROWS FOR LAYER  10
 READING ON UNIT    8 WITH FORMAT: (FREE)              

   HORIZ. ANI. (COL./ROW) =   1.00000     FOR LAYER  10



            HORIZ. TO VERTICAL ANI. FOR LAYER  10
 READING ON UNIT    8 WITH FORMAT: (FREE)              



                   SPECIFIC STORAGE FOR LAYER  10
 READING ON UNIT    8 WITH FORMAT: (FREE)              



                     SPECIFIC YIELD FOR LAYER  10
 READING ON UNIT    8 WITH FORMAT: (FREE)              



              HYD. COND. ALONG ROWS FOR LAYER  11
 READING ON UNIT    8 WITH FORMAT: (FREE)              

   HORIZ. ANI. (COL./ROW) =   1.00000     FOR LAYER  11



            HORIZ. TO VERTICAL ANI. FOR LAYER  11
 READING ON UNIT    8 WITH FORMAT: (FREE)              



                   SPECIFIC STORAGE FOR LAYER  11
 READING ON UNIT    8 WITH FORMAT: (FREE)              



                     SPECIFIC YIELD FOR LAYER  11
 READING ON UNIT    8 WITH FORMAT: (FREE)              



              HYD. COND. ALONG ROWS FOR LAYER  12
 READING ON UNIT    8 WITH FORMAT: (FREE)              

   HORIZ. ANI. (COL./ROW) =   1.00000     FOR LAYER  12



            HORIZ. TO VERTICAL ANI. FOR LAYER  12
 READING ON UNIT    8 WITH FORMAT: (FREE)              



                   SPECIFIC STORAGE FOR LAYER  12
 READING ON UNIT    8 WITH FORMAT: (FREE)              



                     SPECIFIC YIELD FOR LAYER  12
 READING ON UNIT    8 WITH FORMAT: (FREE)              



              HYD. COND. ALONG ROWS FOR LAYER  13
 READING ON UNIT    8 WITH FORMAT: (FREE)              

   HORIZ. ANI. (COL./ROW) =   1.00000     FOR LAYER  13



            HORIZ. TO VERTICAL ANI. FOR LAYER  13
 READING ON UNIT    8 WITH FORMAT: (FREE)              



                   SPECIFIC STORAGE FOR LAYER  13
 READING ON UNIT    8 WITH FORMAT: (FREE)              



                     SPECIFIC YIELD FOR LAYER  13
 READING ON UNIT    8 WITH FORMAT: (FREE)              



              HYD. COND. ALONG ROWS FOR LAYER  14
 READING ON UNIT    8 WITH FORMAT: (FREE)              

   HORIZ. ANI. (COL./ROW) =   1.00000     FOR LAYER  14



            HORIZ. TO VERTICAL ANI. FOR LAYER  14
 READING ON UNIT    8 WITH FORMAT: (FREE)              



                   SPECIFIC STORAGE FOR LAYER  14
 READING ON UNIT    8 WITH FORMAT: (FREE)              



                     SPECIFIC YIELD FOR LAYER  14
 READING ON UNIT    8 WITH FORMAT: (FREE)              



              HYD. COND. ALONG ROWS FOR LAYER  15
 READING ON UNIT    8 WITH FORMAT: (FREE)              

   HORIZ. ANI. (COL./ROW) =   1.00000     FOR LAYER  15



            HORIZ. TO VERTICAL ANI. FOR LAYER  15
 READING ON UNIT    8 WITH FORMAT: (FREE)              



                   SPECIFIC STORAGE FOR LAYER  15
 READING ON UNIT    8 WITH FORMAT: (FREE)              



                     SPECIFIC YIELD FOR LAYER  15
 READING ON UNIT    8 WITH FORMAT: (FREE)              



              HYD. COND. ALONG ROWS FOR LAYER  16
 READING ON UNIT    8 WITH FORMAT: (FREE)              

   HORIZ. ANI. (COL./ROW) =   1.00000     FOR LAYER  16



            HORIZ. TO VERTICAL ANI. FOR LAYER  16
 READING ON UNIT    8 WITH FORMAT: (FREE)              



                   SPECIFIC STORAGE FOR LAYER  16
 READING ON UNIT    8 WITH FORMAT: (FREE)              



                     SPECIFIC YIELD FOR LAYER  16
 READING ON UNIT    8 WITH FORMAT: (FREE)              



              HYD. COND. ALONG ROWS FOR LAYER  17
 READING ON UNIT    8 WITH FORMAT: (FREE)              

   HORIZ. ANI. (COL./ROW) =   1.00000     FOR LAYER  17



            HORIZ. TO VERTICAL ANI. FOR LAYER  17
 READING ON UNIT    8 WITH FORMAT: (FREE)              



                   SPECIFIC STORAGE FOR LAYER  17
 READING ON UNIT    8 WITH FORMAT: (FREE)              



                     SPECIFIC YIELD FOR LAYER  17
 READING ON UNIT    8 WITH FORMAT: (FREE)              



              HYD. COND. ALONG ROWS FOR LAYER  18
 READING ON UNIT    8 WITH FORMAT: (FREE)              

   HORIZ. ANI. (COL./ROW) =   1.00000     FOR LAYER  18



            HORIZ. TO VERTICAL ANI. FOR LAYER  18
 READING ON UNIT    8 WITH FORMAT: (FREE)              



                   SPECIFIC STORAGE FOR LAYER  18
 READING ON UNIT    8 WITH FORMAT: (FREE)              



                     SPECIFIC YIELD FOR LAYER  18
 READING ON UNIT    8 WITH FORMAT: (FREE)              



              HYD. COND. ALONG ROWS FOR LAYER  19
 READING ON UNIT    8 WITH FORMAT: (FREE)              

   HORIZ. ANI. (COL./ROW) =   1.00000     FOR LAYER  19



            HORIZ. TO VERTICAL ANI. FOR LAYER  19
 READING ON UNIT    8 WITH FORMAT: (FREE)              



                   SPECIFIC STORAGE FOR LAYER  19
 READING ON UNIT    8 WITH FORMAT: (FREE)              



                     SPECIFIC YIELD FOR LAYER  19
 READING ON UNIT    8 WITH FORMAT: (FREE)              



              HYD. COND. ALONG ROWS FOR LAYER  20
 READING ON UNIT    8 WITH FORMAT: (FREE)              

   HORIZ. ANI. (COL./ROW) =   1.00000     FOR LAYER  20



            HORIZ. TO VERTICAL ANI. FOR LAYER  20
 READING ON UNIT    8 WITH FORMAT: (FREE)              



                   SPECIFIC STORAGE FOR LAYER  20
 READING ON UNIT    8 WITH FORMAT: (FREE)              



                     SPECIFIC YIELD FOR LAYER  20
 READING ON UNIT    8 WITH FORMAT: (FREE)              



              HYD. COND. ALONG ROWS FOR LAYER  21
 READING ON UNIT    8 WITH FORMAT: (FREE)              

   HORIZ. ANI. (COL./ROW) =   1.00000     FOR LAYER  21



            HORIZ. TO VERTICAL ANI. FOR LAYER  21
 READING ON UNIT    8 WITH FORMAT: (FREE)              



                   SPECIFIC STORAGE FOR LAYER  21
 READING ON UNIT    8 WITH FORMAT: (FREE)              



                     SPECIFIC YIELD FOR LAYER  21
 READING ON UNIT    8 WITH FORMAT: (FREE)              



              HYD. COND. ALONG ROWS FOR LAYER  22
 READING ON UNIT    8 WITH FORMAT: (FREE)              

   HORIZ. ANI. (COL./ROW) =   1.00000     FOR LAYER  22



            HORIZ. TO VERTICAL ANI. FOR LAYER  22
 READING ON UNIT    8 WITH FORMAT: (FREE)              



                   SPECIFIC STORAGE FOR LAYER  22
 READING ON UNIT    8 WITH FORMAT: (FREE)              



                     SPECIFIC YIELD FOR LAYER  22
 READING ON UNIT    8 WITH FORMAT: (FREE)              



              HYD. COND. ALONG ROWS FOR LAYER  23
 READING ON UNIT    8 WITH FORMAT: (FREE)              

   HORIZ. ANI. (COL./ROW) =   1.00000     FOR LAYER  23



            HORIZ. TO VERTICAL ANI. FOR LAYER  23
 READING ON UNIT    8 WITH FORMAT: (FREE)              



                   SPECIFIC STORAGE FOR LAYER  23
 READING ON UNIT    8 WITH FORMAT: (FREE)              



                     SPECIFIC YIELD FOR LAYER  23
 READING ON UNIT    8 WITH FORMAT: (FREE)              



              HYD. COND. ALONG ROWS FOR LAYER  24
 READING ON UNIT    8 WITH FORMAT: (FREE)              

   HORIZ. ANI. (COL./ROW) =   1.00000     FOR LAYER  24



            HORIZ. TO VERTICAL ANI. FOR LAYER  24
 READING ON UNIT    8 WITH FORMAT: (FREE)              



                   SPECIFIC STORAGE FOR LAYER  24
 READING ON UNIT    8 WITH FORMAT: (FREE)              



                     SPECIFIC YIELD FOR LAYER  24
 READING ON UNIT    8 WITH FORMAT: (FREE)              



              HYD. COND. ALONG ROWS FOR LAYER  25
 READING ON UNIT    8 WITH FORMAT: (FREE)              

   HORIZ. ANI. (COL./ROW) =   1.00000     FOR LAYER  25



            HORIZ. TO VERTICAL ANI. FOR LAYER  25
 READING ON UNIT    8 WITH FORMAT: (FREE)              



                   SPECIFIC STORAGE FOR LAYER  25
 READING ON UNIT    8 WITH FORMAT: (FREE)              



                     SPECIFIC YIELD FOR LAYER  25
 READING ON UNIT    8 WITH FORMAT: (FREE)              



              HYD. COND. ALONG ROWS FOR LAYER  26
 READING ON UNIT    8 WITH FORMAT: (FREE)              

   HORIZ. ANI. (COL./ROW) =   1.00000     FOR LAYER  26



            HORIZ. TO VERTICAL ANI. FOR LAYER  26
 READING ON UNIT    8 WITH FORMAT: (FREE)              



                   SPECIFIC STORAGE FOR LAYER  26
 READING ON UNIT    8 WITH FORMAT: (FREE)              



                     SPECIFIC YIELD FOR LAYER  26
 READING ON UNIT    8 WITH FORMAT: (FREE)              



              HYD. COND. ALONG ROWS FOR LAYER  27
 READING ON UNIT    8 WITH FORMAT: (FREE)              

   HORIZ. ANI. (COL./ROW) =   1.00000     FOR LAYER  27



            HORIZ. TO VERTICAL ANI. FOR LAYER  27
 READING ON UNIT    8 WITH FORMAT: (FREE)              



                   SPECIFIC STORAGE FOR LAYER  27
 READING ON UNIT    8 WITH FORMAT: (FREE)              



                     SPECIFIC YIELD FOR LAYER  27
 READING ON UNIT    8 WITH FORMAT: (FREE)              



              HYD. COND. ALONG ROWS FOR LAYER  28
 READING ON UNIT    8 WITH FORMAT: (FREE)              

   HORIZ. ANI. (COL./ROW) =   1.00000     FOR LAYER  28



            HORIZ. TO VERTICAL ANI. FOR LAYER  28
 READING ON UNIT    8 WITH FORMAT: (FREE)              



                   SPECIFIC STORAGE FOR LAYER  28
 READING ON UNIT    8 WITH FORMAT: (FREE)              



                     SPECIFIC YIELD FOR LAYER  28
 READING ON UNIT    8 WITH FORMAT: (FREE)              



              HYD. COND. ALONG ROWS FOR LAYER  29
 READING ON UNIT    8 WITH FORMAT: (FREE)              

   HORIZ. ANI. (COL./ROW) =   1.00000     FOR LAYER  29



            HORIZ. TO VERTICAL ANI. FOR LAYER  29
 READING ON UNIT    8 WITH FORMAT: (FREE)              



                   SPECIFIC STORAGE FOR LAYER  29
 READING ON UNIT    8 WITH FORMAT: (FREE)              



                     SPECIFIC YIELD FOR LAYER  29
 READING ON UNIT    8 WITH FORMAT: (FREE)              



              HYD. COND. ALONG ROWS FOR LAYER  30
 READING ON UNIT    8 WITH FORMAT: (FREE)              

   HORIZ. ANI. (COL./ROW) =   1.00000     FOR LAYER  30



            HORIZ. TO VERTICAL ANI. FOR LAYER  30
 READING ON UNIT    8 WITH FORMAT: (FREE)              



                   SPECIFIC STORAGE FOR LAYER  30
 READING ON UNIT    8 WITH FORMAT: (FREE)              



                     SPECIFIC YIELD FOR LAYER  30
 READING ON UNIT    8 WITH FORMAT: (FREE)              



              HYD. COND. ALONG ROWS FOR LAYER  31
 READING ON UNIT    8 WITH FORMAT: (FREE)              

   HORIZ. ANI. (COL./ROW) =   1.00000     FOR LAYER  31



            HORIZ. TO VERTICAL ANI. FOR LAYER  31
 READING ON UNIT    8 WITH FORMAT: (FREE)              



                   SPECIFIC STORAGE FOR LAYER  31
 READING ON UNIT    8 WITH FORMAT: (FREE)              



                     SPECIFIC YIELD FOR LAYER  31
 READING ON UNIT    8 WITH FORMAT: (FREE)              



              HYD. COND. ALONG ROWS FOR LAYER  32
 READING ON UNIT    8 WITH FORMAT: (FREE)              

   HORIZ. ANI. (COL./ROW) =   1.00000     FOR LAYER  32



            HORIZ. TO VERTICAL ANI. FOR LAYER  32
 READING ON UNIT    8 WITH FORMAT: (FREE)              



                   SPECIFIC STORAGE FOR LAYER  32
 READING ON UNIT    8 WITH FORMAT: (FREE)              



                     SPECIFIC YIELD FOR LAYER  32
 READING ON UNIT    8 WITH FORMAT: (FREE)              



              HYD. COND. ALONG ROWS FOR LAYER  33
 READING ON UNIT    8 WITH FORMAT: (FREE)              

   HORIZ. ANI. (COL./ROW) =   1.00000     FOR LAYER  33



            HORIZ. TO VERTICAL ANI. FOR LAYER  33
 READING ON UNIT    8 WITH FORMAT: (FREE)              



                   SPECIFIC STORAGE FOR LAYER  33
 READING ON UNIT    8 WITH FORMAT: (FREE)              



                     SPECIFIC YIELD FOR LAYER  33
 READING ON UNIT    8 WITH FORMAT: (FREE)              



              HYD. COND. ALONG ROWS FOR LAYER  34
 READING ON UNIT    8 WITH FORMAT: (FREE)              

   HORIZ. ANI. (COL./ROW) =   1.00000     FOR LAYER  34



            HORIZ. TO VERTICAL ANI. FOR LAYER  34
 READING ON UNIT    8 WITH FORMAT: (FREE)              



                   SPECIFIC STORAGE FOR LAYER  34
 READING ON UNIT    8 WITH FORMAT: (FREE)              



                     SPECIFIC YIELD FOR LAYER  34
 READING ON UNIT    8 WITH FORMAT: (FREE)              



              HYD. COND. ALONG ROWS FOR LAYER  35
 READING ON UNIT    8 WITH FORMAT: (FREE)              

   HORIZ. ANI. (COL./ROW) =   1.00000     FOR LAYER  35



            HORIZ. TO VERTICAL ANI. FOR LAYER  35
 READING ON UNIT    8 WITH FORMAT: (FREE)              



                   SPECIFIC STORAGE FOR LAYER  35
 READING ON UNIT    8 WITH FORMAT: (FREE)              



                     SPECIFIC YIELD FOR LAYER  35
 READING ON UNIT    8 WITH FORMAT: (FREE)              



              HYD. COND. ALONG ROWS FOR LAYER  36
 READING ON UNIT    8 WITH FORMAT: (FREE)              

   HORIZ. ANI. (COL./ROW) =   1.00000     FOR LAYER  36



            HORIZ. TO VERTICAL ANI. FOR LAYER  36
 READING ON UNIT    8 WITH FORMAT: (FREE)              



                   SPECIFIC STORAGE FOR LAYER  36
 READING ON UNIT    8 WITH FORMAT: (FREE)              



                     SPECIFIC YIELD FOR LAYER  36
 READING ON UNIT    8 WITH FORMAT: (FREE)              



              HYD. COND. ALONG ROWS FOR LAYER  37
 READING ON UNIT    8 WITH FORMAT: (FREE)              

   HORIZ. ANI. (COL./ROW) =   1.00000     FOR LAYER  37



            HORIZ. TO VERTICAL ANI. FOR LAYER  37
 READING ON UNIT    8 WITH FORMAT: (FREE)              



                   SPECIFIC STORAGE FOR LAYER  37
 READING ON UNIT    8 WITH FORMAT: (FREE)              



                     SPECIFIC YIELD FOR LAYER  37
 READING ON UNIT    8 WITH FORMAT: (FREE)              



              HYD. COND. ALONG ROWS FOR LAYER  38
 READING ON UNIT    8 WITH FORMAT: (FREE)              

   HORIZ. ANI. (COL./ROW) =   1.00000     FOR LAYER  38



            HORIZ. TO VERTICAL ANI. FOR LAYER  38
 READING ON UNIT    8 WITH FORMAT: (FREE)              



                   SPECIFIC STORAGE FOR LAYER  38
 READING ON UNIT    8 WITH FORMAT: (FREE)              



                     SPECIFIC YIELD FOR LAYER  38
 READING ON UNIT    8 WITH FORMAT: (FREE)              



              HYD. COND. ALONG ROWS FOR LAYER  39
 READING ON UNIT    8 WITH FORMAT: (FREE)              

   HORIZ. ANI. (COL./ROW) =   1.00000     FOR LAYER  39



            HORIZ. TO VERTICAL ANI. FOR LAYER  39
 READING ON UNIT    8 WITH FORMAT: (FREE)              



                   SPECIFIC STORAGE FOR LAYER  39
 READING ON UNIT    8 WITH FORMAT: (FREE)              



                     SPECIFIC YIELD FOR LAYER  39
 READING ON UNIT    8 WITH FORMAT: (FREE)              

    HYD. COND. ALONG ROWS =   4.00000     FOR LAYER  40

   HORIZ. ANI. (COL./ROW) =   1.00000     FOR LAYER  40

  HORIZ. TO VERTICAL ANI. =   1.00000     FOR LAYER  40

         SPECIFIC STORAGE =  1.000000E-04 FOR LAYER  40

           SPECIFIC YIELD =  8.000000E-02 FOR LAYER  40

 WEL -- WELL PACKAGE FOR NWT VERSION 1.2.0,  3/01/2020 INPUT READ FROM UNIT   10
 #
 No named parameters
 MAXIMUM OF      2 ACTIVE WELLS AT ONE TIME
 CELL-BY-CELL FLOWS WILL BE SAVED ON UNIT   40
 AUXILIARY WELL VARIABLE: IFACE           
 AUXILIARY WELL VARIABLE: QFACT           
 AUXILIARY WELL VARIABLE: CELLGRP         
 No named parameters
 
 NEGATIVE PUMPING RATES WILL BE REDUCED IF HEAD 
 FALLS WITHIN THE INTERVAL PHIRAMP TIMES THE CELL 
 THICKNESS. THE VALUE SPECIFIED FOR PHIRAMP IS  0.10000E+00
 WELLS WITH REDUCED PUMPING WILL BE REPORTED TO FILE UNIT NUMBER    1


     0 Well parameters

 DRN -- DRAIN PACKAGE, VERSION 7, 5/2/2005 INPUT READ FROM UNIT   11
 #
 No named parameters
 MAXIMUM OF     75 ACTIVE DRAINS AT ONE TIME
 CELL-BY-CELL FLOWS WILL BE SAVED ON UNIT   40
 AUXILIARY DRAIN VARIABLE: IFACE           
 AUXILIARY DRAIN VARIABLE: CONDFACT        
 AUXILIARY DRAIN VARIABLE: CELLGRP         


     0 Drain parameters

 GHB -- GENERAL-HEAD BOUNDARY PACKAGE, VERSION 7, 5/2/2005
         INPUT READ FROM UNIT   12
 #
 No named parameters
 MAXIMUM OF     38 ACTIVE GHB CELLS AT ONE TIME
 CELL-BY-CELL FLOWS WILL BE SAVED ON UNIT   40
 AUXILIARY GHB VARIABLE: IFACE           
 AUXILIARY GHB VARIABLE: CONDFACT        
 AUXILIARY GHB VARIABLE: CELLGRP         


     0 GHB parameters

 WARNING READING LMT PACKAGE INPUT DATA:
 [STANDARD] HEADER NO LONGER SUPPORTED; [EXTENDED] HEADER USED INSTEAD.


 ***Link-MT3DMS Package v7***
 OPENING LINK-MT3DMS OUTPUT FILE: case3.hff                                                                                                                                                                                               
 ON UNIT NUMBER:   333
 FILE TYPE: UNFORMATTED
 HEADER OPTION: EXTENDED
 ***Link-MT3DMS Package v7***

1
                            STRESS PERIOD NO.    1, LENGTH =   10.00000    
                            -----------------------------------------------

                              NUMBER OF TIME STEPS =    10

                               MULTIPLIER FOR DELT =     1.000

                            INITIAL TIME STEP SIZE =   1.000000    

 WELL NO.  LAYER   ROW   COL   STRESS RATE         IFACE           QFACT           CELLGRP         
 --------------------------------------------------------------------------------------------------
      1     37      1     21      -100.0           0.000           0.000          -1.000    
      2     37      1     60      -100.0           0.000           0.000          -1.000    

      2 WELLS

 DRAIN NO.  LAYER   ROW   COL     DRAIN EL.  CONDUCTANCE         IFACE           CONDFACT        CELLGRP         
 ----------------------------------------------------------------------------------------------------------------
      1      3      1     26       37.50           1.000           6.000           0.000          -1.000    
      2      4      1     27       36.50           1.000           6.000           0.000          -1.000    
      3      4      1     28       36.50           1.000           6.000           0.000          -1.000    
      4      5      1     29       35.50           1.000           6.000           0.000          -1.000    
      5      5      1     30       35.50           1.000           6.000           0.000          -1.000    
      6      6      1     31       34.50           1.000           6.000           0.000          -1.000    
      7      6      1     32       34.50           1.000           6.000           0.000          -1.000    
      8      7      1     33       33.50           1.000           6.000           0.000          -1.000    
      9      7      1     34       33.50           1.000           6.000           0.000          -1.000    
     10      8      1     35       32.50           1.000           6.000           0.000          -1.000    
     11      8      1     36       32.50           1.000           6.000           0.000          -1.000    
     12      9      1     37       31.50           1.000           6.000           0.000          -1.000    
     13      9      1     38       31.50           1.000           6.000           0.000          -1.000    
     14     10      1     39       30.50           1.000           6.000           0.000          -1.000    
     15     10      1     40       30.50           1.000           6.000           0.000          -1.000    
     16     11      1     41       29.50           1.000           6.000           0.000          -1.000    
     17     11      1     42       29.50           1.000           6.000           0.000          -1.000    
     18     12      1     43       28.50           1.000           6.000           0.000          -1.000    
     19     12      1     44       28.50           1.000           6.000           0.000          -1.000    
     20     13      1     45       27.50           1.000           6.000           0.000          -1.000    
     21     13      1     46       27.50           1.000           6.000           0.000          -1.000    
     22     14      1     47       26.50           1.000           6.000           0.000          -1.000    
     23     14      1     48       26.50           1.000           6.000           0.000          -1.000    
     24     15      1     49       25.50           1.000           6.000           0.000          -1.000    
     25     15      1     50       25.50           1.000           6.000           0.000          -1.000    
     26     16      1     51       24.50           1.000           6.000           0.000          -1.000    
     27     16      1     52       24.50           1.000           6.000           0.000          -1.000    
     28     17      1     53       23.50           1.000           6.000           0.000          -1.000    
     29     17      1     54       23.50           1.000           6.000           0.000          -1.000    
     30     18      1     55       22.50           1.000           6.000           0.000          -1.000    
     31     18      1     56       22.50           1.000           6.000           0.000          -1.000    
     32     19      1     57       21.50           1.000           6.000           0.000          -1.000    
     33     19      1     58       21.50           1.000           6.000           0.000          -1.000    
     34     20      1     59       20.50           1.000           6.000           0.000          -1.000    
     35     20      1     60       20.50           1.000           6.000           0.000          -1.000    
     36     21      1     61       19.50           1.000           6.000           0.000          -1.000    
     37     21      1     62       19.50           1.000           6.000           0.000          -1.000    
     38     22      1     63       18.50           1.000           6.000           0.000          -1.000    
     39     22      1     64       18.50           1.000           6.000           0.000          -1.000    
     40     23      1     65       17.50           1.000           6.000           0.000          -1.000    
     41     23      1     66       17.50           1.000           6.000           0.000          -1.000    
     42     24      1     67       16.50           1.000           6.000           0.000          -1.000    
     43     24      1     68       16.50           1.000           6.000           0.000          -1.000    
     44     25      1     69       15.50           1.000           6.000           0.000          -1.000    
     45     25      1     70       15.50           1.000           6.000           0.000          -1.000    
     46     26      1     71       14.50           1.000           6.000           0.000          -1.000    
     47     26      1     72       14.50           1.000           6.000           0.000          -1.000    
     48     27      1     73       13.50           1.000           6.000           0.000          -1.000    
     49     27      1     74       13.50           1.000           6.000           0.000          -1.000    
     50     28      1     75       12.50           1.000           6.000           0.000          -1.000    
     51     28      1     76       12.50           1.000           6.000           0.000          -1.000    
     52     29      1     77       11.50           1.000           6.000           0.000          -1.000    
     53     29      1     78       11.50           1.000           6.000           0.000          -1.000    
     54     30      1     79       10.50           1.000           6.000           0.000          -1.000    
     55     30      1     80       10.50           1.000           6.000           0.000          -1.000    
     56     31      1     81       9.500           1.000           6.000           0.000          -1.000    
     57     31      1     82       9.500           1.000           6.000           0.000          -1.000    
     58     32      1     83       8.500           1.000           6.000           0.000          -1.000    
     59     32      1     84       8.500           1.000           6.000           0.000          -1.000    
     60     33      1     85       7.500           1.000           6.000           0.000          -1.000    
     61     33      1     86       7.500           1.000           6.000           0.000          -1.000    
     62     34      1     87       6.500           1.000           6.000           0.000          -1.000    
     63     34      1     88       6.500           1.000           6.000           0.000          -1.000    
     64     35      1     89       5.500           1.000           6.000           0.000          -1.000    
     65     35      1     90       5.500           1.000           6.000           0.000          -1.000    
     66     36      1     91       4.500           1.000           6.000           0.000          -1.000    
     67     36      1     92       4.500           1.000           6.000           0.000          -1.000    
     68     37      1     93       3.500           1.000           6.000           0.000          -1.000    
     69     37      1     94       3.500           1.000           6.000           0.000          -1.000    
     70     38      1     95       2.500           1.000           6.000           0.000          -1.000    
     71     38      1     96       2.500           1.000           6.000           0.000          -1.000    
     72     39      1     97       1.500           1.000           6.000           0.000          -1.000    
     73     39      1     98       1.500           1.000           6.000           0.000          -1.000    
     74     40      1     99      0.5000           1.000           6.000           0.000          -1.000    
     75     40      1    100      0.5000           1.000           6.000           0.000          -1.000    

     75 DRAINS

 BOUND. NO. LAYER   ROW   COL     STAGE      CONDUCTANCE         IFACE           CONDFACT        CELLGRP         
 ----------------------------------------------------------------------------------------------------------------
      1      3      1     13       38.00          0.1000E+05       6.000           0.000          -1.000    
      2      4      1     13       38.00          0.1000E+05       6.000           0.000          -1.000    
      3      5      1     12       38.00          0.1000E+05       6.000           0.000          -1.000    
      4      6      1     12       38.00          0.1000E+05       6.000           0.000          -1.000    
      5      7      1     12       38.00          0.1000E+05       6.000           0.000          -1.000    
      6      8      1     11       38.00          0.1000E+05       6.000           0.000          -1.000    
      7      9      1     11       38.00          0.1000E+05       6.000           0.000          -1.000    
      8     10      1     11       38.00          0.1000E+05       6.000           0.000          -1.000    
      9     11      1     10       38.00          0.1000E+05       6.000           0.000          -1.000    
     10     12      1     10       38.00          0.1000E+05       6.000           0.000          -1.000    
     11     13      1     10       38.00          0.1000E+05       6.000           0.000          -1.000    
     12     14      1      9       38.00          0.1000E+05       6.000           0.000          -1.000    
     13     15      1      9       38.00          0.1000E+05       6.000           0.000          -1.000    
     14     16      1      9       38.00          0.1000E+05       6.000           0.000          -1.000    
     15     17      1      8       38.00          0.1000E+05       6.000           0.000          -1.000    
     16     18      1      8       38.00          0.1000E+05       6.000           0.000          -1.000    
     17     19      1      8       38.00          0.1000E+05       6.000           0.000          -1.000    
     18     20      1      7       38.00          0.1000E+05       6.000           0.000          -1.000    
     19     21      1      7       38.00          0.1000E+05       6.000           0.000          -1.000    
     20     22      1      7       38.00          0.1000E+05       6.000           0.000          -1.000    
     21     23      1      6       38.00          0.1000E+05       6.000           0.000          -1.000    
     22     24      1      6       38.00          0.1000E+05       6.000           0.000          -1.000    
     23     25      1      6       38.00          0.1000E+05       6.000           0.000          -1.000    
     24     26      1      5       38.00          0.1000E+05       6.000           0.000          -1.000    
     25     27      1      5       38.00          0.1000E+05       6.000           0.000          -1.000    
     26     28      1      5       38.00          0.1000E+05       6.000           0.000          -1.000    
     27     29      1      4       38.00          0.1000E+05       6.000           0.000          -1.000    
     28     30      1      4       38.00          0.1000E+05       6.000           0.000          -1.000    
     29     31      1      4       38.00          0.1000E+05       6.000           0.000          -1.000    
     30     32      1      3       38.00          0.1000E+05       6.000           0.000          -1.000    
     31     33      1      3       38.00          0.1000E+05       6.000           0.000          -1.000    
     32     34      1      3       38.00          0.1000E+05       6.000           0.000          -1.000    
     33     35      1      2       38.00          0.1000E+05       6.000           0.000          -1.000    
     34     36      1      2       38.00          0.1000E+05       6.000           0.000          -1.000    
     35     37      1      2       38.00          0.1000E+05       6.000           0.000          -1.000    
     36     38      1      1       38.00          0.1000E+05       6.000           0.000          -1.000    
     37     39      1      1       38.00          0.1000E+05       6.000           0.000          -1.000    
     38     40      1      1       38.00          0.1000E+05       6.000           0.000          -1.000    

     38 GHB CELLS
 
 SOLVING FOR HEAD 
                                                   Max.-Head-Change                         Max.-Flux-Residual
  Residual-Control   Outer-Iter.   Inner-Iter.     Column Row Layer    Maximum-Head-Change  Column Row Layer    Maximum-Flux-Residual          L2-NORM 
          0                 1          36            60    1    37      -0.5258863551E+02      21    1   37        -0.1000000000E+03      0.2378544723E+03
          0                 2          41            58    1    31       0.1230201450E+03      58    1   40        -0.1930218163E+03      0.4009539563E+03
          0                 3          46            58    1    31      -0.1167960860E+03      58    1   24        -0.1108350615E+04      0.3685713203E+04
          0                 4          41            59    1    37       0.5695832281E+02      21    1   37         0.1001145375E+03      0.2559009318E+03
          0                 5          36            59    1    38      -0.5258150328E+02      56    1   20        -0.4312328495E+03      0.1790158345E+04
          0                 6          36            60    1    37       0.3403176961E+02      56    1   20        -0.4946552858E+02      0.2124303968E+03
          0                 7          46            60    1    37      -0.3652930561E+02      60    1   37        -0.2254034912E+03      0.6610021207E+03
          0                 8          41            56    1    26       0.7634162767E+02      21    1   37         0.1003006613E+03      0.1687960758E+03
          0                 9          41            56    1    26      -0.6041673958E+02      56    1   34        -0.3743620664E+03      0.1501603187E+04
          0                10          39            60    1    37       0.1305002290E+02      60    1   37         0.1022352054E+03      0.2988397386E+03
                                                   Max.-Head-Change                         Max.-Flux-Residual
  Residual-Control   Outer-Iter.   Inner-Iter.     Column Row Layer    Maximum-Head-Change  Column Row Layer    Maximum-Flux-Residual          L2-NORM 
          0                11          41            60    1    37      -0.1707443602E+02      60    1   37        -0.7552594250E+02      0.2465841016E+03
          0                12          31            60    1    37       0.1730607728E+02      60    1   37         0.3516287781E+02      0.8575807858E+02
          0                13          41            60    1    37      -0.2178872528E+02      60    1   37        -0.1016675850E+03      0.1904385810E+03
          0                14          36            57    1    19       0.5672983943E+02      60    1   40        -0.1045171847E+03      0.1501561629E+03
          0                15          46            57    1    32      -0.3310504363E+02      58    1   21         0.2419131388E+03      0.1289105475E+04
          0                16          41            21    1    37       0.2366054912E+02      21    1   37         0.1016132381E+03      0.3997930208E+03
          0                17          31            63    1    28       0.3365591100E+02      21    1   37        -0.9697669279E+02      0.2571022765E+03
          0                18          46            63    1    22      -0.2406441522E+02      63    1   27        -0.2457374033E+03      0.1018785152E+04
          0                19          36            60    1    37       0.1804637348E+02      63    1   23        -0.1006839189E+03      0.3949915718E+03
          0                20          46            60    1    37      -0.1752379209E+02      60    1   37        -0.1453303795E+03      0.4756051562E+03
                                                   Max.-Head-Change                         Max.-Flux-Residual
  Residual-Control   Outer-Iter.   Inner-Iter.     Column Row Layer    Maximum-Head-Change  Column Row Layer    Maximum-Flux-Residual          L2-NORM 
          0                21          41            21    1    37       0.2256265892E+02      21    1   37         0.1008414823E+03      0.1856752635E+03
          0                22          36            21    1    37      -0.1524606532E+02      60    1   37        -0.1393593900E+03      0.4948850865E+03
          0                23          51            60    1    37       0.9668829212E+01      60    1   37         0.5336599275E+02      0.1666679215E+03
          0                24          41            60    1    37      -0.1210257733E+02      60    1   37        -0.7608432543E+02      0.1540009369E+03
          0                25          36            61    1    37       0.1403623256E+02      60    1   37         0.3276908267E+02      0.6375600994E+02
          0                26          46            66    1    23      -0.1983254991E+02      61    1   37        -0.1073153854E+03      0.2177446744E+03
          0                27          41            58    1    19       0.3497527080E+02      21    1   37         0.1013257957E+03      0.1365700098E+03
          0                28          46            60    1    37      -0.1901738432E+02      61    1   36         0.3027669783E+03      0.1378521670E+04
          0                29          46            60    1    37      -0.9542530000E+01      61    1   36         0.1656410566E+03      0.7069888434E+03
          0                30          36            65    1    23       0.1663910269E+02      61    1   36         0.9058324841E+02      0.3707723141E+03
                                                   Max.-Head-Change                         Max.-Flux-Residual
  Residual-Control   Outer-Iter.   Inner-Iter.     Column Row Layer    Maximum-Head-Change  Column Row Layer    Maximum-Flux-Residual          L2-NORM 
          0                31          41            60    1    37      -0.7839062784E+01      65    1   33        -0.1068181334E+03      0.3916330153E+03
          0                32          41            60    1    37       0.9943705422E+01      65    1   33        -0.6127589136E+02      0.2063535716E+03
          0                33          46            66    1    23      -0.1062061515E+02      60    1   37        -0.1062456620E+03      0.2371500647E+03
          0                34          41            60    1    36       0.2587832154E+02      21    1   37         0.1009004108E+03      0.1272270946E+03
          0                35          50            60    1    37      -0.1441540211E+02      60    1   36        -0.2094283225E+03      0.6549167697E+03
          0                36          41            60    1    37      -0.8981932697E+01      60    1   36        -0.1303797990E+03      0.3392045644E+03
          0                37          46            58    1    19       0.4672572710E+02      60    1   36        -0.7705587927E+02      0.1384652445E+03
          0                38          43            58    1    19      -0.1381577469E+02      58    1   38        -0.2473145990E+03      0.1088619811E+04
          0                39          46            70    1    25       0.1200794604E+02      58    1   38        -0.1594596184E+03      0.6734658935E+03
          0                40          36            68    1    24      -0.8487181418E+01      58    1   38        -0.1045131997E+03      0.4525017396E+03
                                                   Max.-Head-Change                         Max.-Flux-Residual
  Residual-Control   Outer-Iter.   Inner-Iter.     Column Row Layer    Maximum-Head-Change  Column Row Layer    Maximum-Flux-Residual          L2-NORM 
          0                41          46            65    1    24       0.6611829533E+01      60    1   37         0.8224206165E+02      0.2751966927E+03
          0                42          51            53    1    17      -0.8766846377E+01      65    1   25        -0.7536018050E+02      0.2869063559E+03
          0                43          36            53    1    17       0.5603172009E+01      21    1   37         0.8320296692E+02      0.1666783388E+03
          0                44          46            53    1    17      -0.1107660303E+02      60    1   37        -0.5169785858E+02      0.1335530690E+03
          0                45          31            60    1    37       0.9570202569E+01      60    1   37         0.4058497841E+02      0.7327107269E+02
          0                46          41            66    1    23      -0.8966839410E+01      60    1   37        -0.1244738473E+03      0.1845261202E+03
          0                47          36            60    1    20       0.1286771444E+02      59    1   37         0.2385626068E+02      0.6374580210E+02
          0                48          46            53    1    17      -0.1280751849E+02      52    1   20        -0.1062539303E+03      0.3455706729E+03
          0                49          36            63    1    22       0.1148292535E+02      60    1   37         0.4159180203E+02      0.1393343575E+03
          0                50          41            65    1    24      -0.1662427176E+02      52    1   20        -0.1795719286E+03      0.3589880264E+03
                                                   Max.-Head-Change                         Max.-Flux-Residual
  Residual-Control   Outer-Iter.   Inner-Iter.     Column Row Layer    Maximum-Head-Change  Column Row Layer    Maximum-Flux-Residual          L2-NORM 
          0                51          36            53    1    17       0.1042931521E+02      63    1   33        -0.4586186589E+02      0.1392894110E+03
          0                52          41            59    1    20      -0.9384315990E+01      64    1   28        -0.7733187865E+02      0.2174808141E+03
          0                53          36            65    1    24       0.9356862126E+01      51    1   25        -0.2870954894E+02      0.1029031707E+03
          0                54          46            56    1    18      -0.8182687873E+01      52    1   18        -0.1158962252E+03      0.3274380917E+03
          0                55          41            60    1    20       0.7798133180E+01      52    1   18        -0.6455344734E+02      0.1218432840E+03
          0                56          41            56    1    18      -0.5697364500E+01      58    1   22        -0.1014269985E+03      0.3529467647E+03
          0                57          41            62    1    22       0.7476825168E+01      58    1   24        -0.7067399080E+02      0.2004597468E+03
          0                58          41            53    1    17      -0.7079872296E+01      60    1   37        -0.1037883845E+03      0.2657091316E+03
          0                59          36            56    1    19       0.7166427847E+01      55    1   27        -0.4434485479E+02      0.1252618084E+03
          0                60          41            65    1    24      -0.7680021238E+01      60    1   37        -0.9631049604E+02      0.2431485945E+03
                                                   Max.-Head-Change                         Max.-Flux-Residual
  Residual-Control   Outer-Iter.   Inner-Iter.     Column Row Layer    Maximum-Head-Change  Column Row Layer    Maximum-Flux-Residual          L2-NORM 
          0                61          41            65    1    24       0.5506372439E+01      53    1   20         0.5282201193E+02      0.1292878059E+03
          0                62          46            62    1    21      -0.8313025016E+01      64    1   26        -0.1165774132E+03      0.3280105217E+03
          0                63          36            59    1    20       0.8586264017E+01      53    1   20         0.2788304610E+02      0.1000856013E+03
          0                64          41            62    1    21      -0.6577933172E+01      60    1   37        -0.8087732309E+02      0.1911237974E+03
          0                65          36            62    1    21       0.9365410101E+01      60    1   26        -0.3769358424E+02      0.1062797179E+03
          0                66          46            65    1    24      -0.8221603100E+01      60    1   37        -0.9959318414E+02      0.2735260398E+03
          0                67          36            65    1    24       0.8690930489E+01      65    1   30         0.5118389201E+02      0.1340409600E+03
          0                68          41            65    1    24      -0.7015680675E+01      60    1   37        -0.8151693073E+02      0.1772344496E+03
          0                69          36            65    1    24       0.6325288267E+01      63    1   35        -0.3469977047E+02      0.1111954695E+03
          0                70          36            56    1    18      -0.4159399476E+01      64    1   24        -0.2016938868E+03      0.4885898053E+03
                                                   Max.-Head-Change                         Max.-Flux-Residual
  Residual-Control   Outer-Iter.   Inner-Iter.     Column Row Layer    Maximum-Head-Change  Column Row Layer    Maximum-Flux-Residual          L2-NORM 
          0                71          34            67    1    24       0.5208403851E+01      63    1   28         0.6043571042E+02      0.1607790049E+03
          0                72          36            65    1    24      -0.6037596418E+01      60    1   37        -0.8425516877E+02      0.1739672557E+03
          0                73          36            65    1    24       0.6890728920E+01      62    1   28        -0.3475620397E+02      0.1044811074E+03
          0                74          36            63    1    22      -0.5469832109E+01      60    1   37        -0.8970903862E+02      0.1412367443E+03
          0                75          31            63    1    22       0.5682409675E+01      65    1   33        -0.2617267029E+02      0.8134738654E+02
          0                76          36            63    1    22      -0.5280960268E+01      60    1   37        -0.9213459943E+02      0.1253534642E+03
          0                77          36            62    1    22       0.2733315841E+01      72    1   32        -0.2865246183E+02      0.7032828113E+02
          0                78          36            65    1    24       0.3555486567E+01      63    1   28         0.7762418816E+02      0.1573728082E+03
          0                79          46            65    1    24      -0.4671047801E+01      60    1   37        -0.8388814027E+02      0.1530060578E+03
          0                80          41            21    1    37       0.5504123537E+01      21    1   37         0.1017630621E+03      0.1367704438E+03
                                                   Max.-Head-Change                         Max.-Flux-Residual
  Residual-Control   Outer-Iter.   Inner-Iter.     Column Row Layer    Maximum-Head-Change  Column Row Layer    Maximum-Flux-Residual          L2-NORM 
          0                81          46            65    1    24      -0.5155943323E+01      60    1   37        -0.9071077934E+02      0.1622771275E+03
          0                82          41            63    1    22       0.3843527172E+01      66    1   30        -0.4123328874E+02      0.9820140126E+02
          0                83          36            65    1    24      -0.4487471412E+01      60    1   37        -0.8972514619E+02      0.1372318298E+03
          0                84          41            65    1    24       0.4395272443E+01      65    1   30         0.2759651258E+02      0.8116245847E+02
          0                85          36            65    1    24      -0.3937516317E+01      60    1   37        -0.8976136866E+02      0.1180204245E+03
          0                86          36            65    1    24       0.3583403958E+01      60    1   37         0.1882465788E+02      0.6408338582E+02
          0                87          36            65    1    24      -0.3813237929E+01      60    1   37        -0.8844832446E+02      0.1097782417E+03
          0                88          36            65    1    24       0.3400488630E+01      59    1   37         0.1974432812E+02      0.5998264084E+02
          0                89          36            65    1    24      -0.3514409115E+01      60    1   37        -0.8932569922E+02      0.1360907924E+03
          0                90          36            65    1    24       0.3638865119E+01      68    1   30        -0.3428778456E+02      0.8010491769E+02
                                                   Max.-Head-Change                         Max.-Flux-Residual
  Residual-Control   Outer-Iter.   Inner-Iter.     Column Row Layer    Maximum-Head-Change  Column Row Layer    Maximum-Flux-Residual          L2-NORM 
          0                91          36            65    1    24      -0.3193343537E+01      60    1   37        -0.8799986257E+02      0.1195250565E+03
          0                92          36            67    1    24       0.2375297509E+01      68    1   30        -0.2363859384E+02      0.7018769772E+02
          0                93          36            65    1    24      -0.2845156620E+01      60    1   37        -0.8786573139E+02      0.1115650584E+03
          0                94          36            65    1    24       0.2711614663E+01      59    1   37         0.2000065001E+02      0.6403574255E+02
          0                95          36            65    1    24      -0.2893457846E+01      60    1   37        -0.8735388809E+02      0.1353267557E+03
          0                96          36            65    1    24       0.2456128175E+01      62    1   28        -0.4957800473E+02      0.9445304910E+02
          0                97          36            67    1    24      -0.3027801459E+01      60    1   37        -0.8728024306E+02      0.1267866069E+03
          0                98          36            63    1    22       0.2229116007E+01      62    1   28        -0.4241592623E+02      0.8615374833E+02
          0                99          26            67    1    24       0.5095711715E+00      60    1   37        -0.6146168403E+02      0.1216099859E+03
          0               100          26            67    1    24       0.4427868253E+00      60    1   37        -0.5774374500E+02      0.1142389795E+03
                                                   Max.-Head-Change                         Max.-Flux-Residual
  Residual-Control   Outer-Iter.   Inner-Iter.     Column Row Layer    Maximum-Head-Change  Column Row Layer    Maximum-Flux-Residual          L2-NORM 
          0               101          26            69    1    25       0.3985710040E+00      60    1   37        -0.5427829937E+02      0.1073564334E+03
          0               102          26            69    1    25       0.3647715497E+00      60    1   37        -0.5117530830E+02      0.1006698255E+03
          0               103          26            69    1    25       0.3433190914E+00      60    1   37        -0.4815392345E+02      0.9463610550E+02
          0               104          26            69    1    25       0.3331361972E+00      60    1   37        -0.4533507176E+02      0.8897741397E+02
          0               105          26            69    1    25       0.3063944021E+00      60    1   37        -0.4267307546E+02      0.8364338522E+02
          0               106          26            69    1    25       0.2721954767E+00      60    1   37        -0.4016401149E+02      0.7863060017E+02
          0               107          26            69    1    25       0.2539301424E+00      60    1   37        -0.3779937553E+02      0.7391595099E+02
          0               108          26            69    1    25       0.2293529470E+00      60    1   37        -0.3557070513E+02      0.6947953044E+02
          0               109          26            69    1    25       0.2108780660E+00      60    1   37        -0.3347044877E+02      0.6530906265E+02
          0               110          26            69    1    25       0.1988045391E+00      60    1   37        -0.3149117914E+02      0.6138431565E+02
                                                   Max.-Head-Change                         Max.-Flux-Residual
  Residual-Control   Outer-Iter.   Inner-Iter.     Column Row Layer    Maximum-Head-Change  Column Row Layer    Maximum-Flux-Residual          L2-NORM 
          0               111          26            69    1    25       0.1853585409E+00      60    1   37        -0.2962600225E+02      0.5768256050E+02
          0               112          26            69    1    25       0.1739732183E+00      60    1   37        -0.2786856892E+02      0.5421066486E+02
          0               113          26            65    1    24       0.1671463403E+00      60    1   37        -0.2621276488E+02      0.5094384602E+02
          0               114          25            65    1    24       0.1601469010E+00      60    1   37        -0.2465283798E+02      0.4787199225E+02
          0               115          25            65    1    24       0.1548936159E+00      60    1   37        -0.2318337905E+02      0.4498150420E+02
          0               116          25            65    1    24       0.1512650637E+00      60    1   37        -0.2179928503E+02      0.4226774285E+02
          0               117          21            69    1    25       0.1543684038E+00      60    1   37        -0.2049571279E+02      0.3971202209E+02
          0               118          21            65    1    24       0.1498271198E+00      60    1   37        -0.1926806800E+02      0.3730906960E+02
          0               119          16            65    1    23       0.1406342331E+00      60    1   37        -0.1811204937E+02      0.3504587634E+02
[...]

                IN - OUT =      -4.8828E-03                  IN - OUT =       1.9226E-03

     PERCENT DISCREPANCY =          -0.00         PERCENT DISCREPANCY =           0.00






         TIME SUMMARY AT END OF TIME STEP    7 IN STRESS PERIOD    3
                    SECONDS     MINUTES      HOURS       DAYS        YEARS
                    -----------------------------------------------------------
   TIME STEP LENGTH  86400.      1440.0      24.000      1.0000     2.73785E-03
 STRESS PERIOD TIME 6.04800E+05  10080.      168.00      7.0000     1.91650E-02
         TOTAL TIME 2.33280E+06  38880.      648.00      27.000     7.39220E-02
1
 
 SOLVING FOR HEAD 
                                                   Max.-Head-Change                         Max.-Flux-Residual
  Residual-Control   Outer-Iter.   Inner-Iter.     Column Row Layer    Maximum-Head-Change  Column Row Layer    Maximum-Flux-Residual          L2-NORM 
          0                 1           5            88    1    37       0.1626508598E-01      77    1   37         0.2110946813E-02      0.1117248116E-01
          0                 2           1            76    1    38       0.2732044649E-03      76    1   38         0.2898668991E-02      0.3726798115E-02
          0                 3           1            72    1    40       0.1823898230E-03      73    1   39         0.1764508548E-03      0.7020554156E-03
          0                 4           1            56    1    19       0.7494944576E-04      75    1   39         0.9319297389E-04      0.5742298697E-03
          0                 5           1            56    1    30       0.9316800915E-04      73    1   39         0.8324579361E-04      0.5097025741E-03
          0                 6           1            56    1    19       0.7515151101E-04      75    1   39         0.6478634508E-04      0.4603747203E-03
          0                 7           1            56    1    30       0.7267444906E-04      73    1   39         0.5610410360E-04      0.4208522897E-03
          0                 8           1            56    1    18       0.7274055153E-04      75    1   39         0.4564692183E-04      0.3852840919E-03
          0                 9           1            56    1    30       0.5580240909E-04      73    1   39         0.4185086810E-04      0.3538760669E-03
          0                10           1            56    1    18       0.6992849700E-04      75    1   39         0.3306773219E-04      0.3248201721E-03
                                                   Max.-Head-Change                         Max.-Flux-Residual
  Residual-Control   Outer-Iter.   Inner-Iter.     Column Row Layer    Maximum-Head-Change  Column Row Layer    Maximum-Flux-Residual          L2-NORM 
          0                11           1            56    1    30       0.4307814763E-04      73    1   39         0.3255327461E-04      0.2980629382E-03
          0                12           1            56    1    18       0.6708642991E-04      75    1   39         0.2412447294E-04      0.2732655076E-03
          0                13           1            56    1    30       0.3335246159E-04      73    1   39         0.2568027354E-04      0.2498077347E-03
          0                14           1            56    1    18       0.6426866058E-04      46    1   26         0.1997968447E-04      0.2281666647E-03
          0                15           1            56    1    30       0.2575583948E-04      71    1   39         0.2320335278E-04      0.2072766429E-03
          0                16           1            56    1    18       0.6138133076E-04      46    1   26         0.1661371165E-04      0.1881321508E-03
          0                17           1            56    1    30       0.1970970757E-04      71    1   39         0.2075277213E-04      0.1693622710E-03
          0                18           1            56    1    18       0.5846885471E-04      46    1   26         0.1354500930E-04      0.1522805727E-03
          0                19           1            56    1    30       0.1496029068E-04      74    1   38        -0.2012327396E-04      0.1361554041E-03
          0                20           1            56    1    18       0.5311418920E-04      46    1   26         0.1072704514E-04      0.1199996075E-03
                                                   Max.-Head-Change                         Max.-Flux-Residual
  Residual-Control   Outer-Iter.   Inner-Iter.     Column Row Layer    Maximum-Head-Change  Column Row Layer    Maximum-Flux-Residual          L2-NORM 
          0                21           1            56    1    30       0.1147305570E-04      71    1   39         0.1580044178E-04      0.1048289906E-03

    ------------------------------------------------
       NWT REQUIRED           21 OUTER ITERATIONS 
       AND A TOTAL OF         25 INNER ITERATIONS.
    ------------------------------------------------

 OUTPUT CONTROL FOR STRESS PERIOD    3   TIME STEP    8
    PRINT BUDGET
    SAVE HEAD FOR ALL LAYERS
    SAVE DRAWDOWN FOR ALL LAYERS
    SAVE BUDGET
 UBDSV1 SAVING "         STORAGE" ON UNIT  40 AT TIME STEP  8, STRESS PERIOD   3
 UBDSV2 SAVING "   CONSTANT HEAD" ON UNIT  40 AT TIME STEP  8, STRESS PERIOD   3
 UBDSV1 SAVING "FLOW RIGHT FACE " ON UNIT  40 AT TIME STEP  8, STRESS PERIOD   3
 UBDSV1 SAVING "FLOW LOWER FACE " ON UNIT  40 AT TIME STEP  8, STRESS PERIOD   3
 UBDSV4 SAVING "           WELLS" ON UNIT  40 AT TIME STEP  8, STRESS PERIOD   3
 
 WELLS WITH REDUCED PUMPING FOR STRESS PERIOD     3 TIME STEP     8
   LAY   ROW   COL         APPL.Q          ACT.Q        GW-HEAD       CELL-BOT
    37     1    21  -0.100000E+03  -0.967562E+02   0.263381E+01   0.250000E+01
    37     1    60  -0.100000E+03  -0.201291E+02   0.351441E+01   0.350000E+01
 
 UBDSV4 SAVING "          DRAINS" ON UNIT  40 AT TIME STEP  8, STRESS PERIOD   3
 UBDSV4 SAVING " HEAD DEP BOUNDS" ON UNIT  40 AT TIME STEP  8, STRESS PERIOD   3

 SAVING SATURATED THICKNESS AND FLOW TERMS ON UNIT  333 FOR MT3DMS
 BY THE LINK-MT3DMS PACKAGE V7 AT TIME STEP    8, STRESS PERIOD    3


 HEAD WILL BE SAVED ON UNIT    2 AT END OF TIME STEP    8, STRESS PERIOD    3

 DRAWDOWN WILL BE SAVED ON UNIT   14 AT END OF TIME STEP    8, STRESS PERIOD    3
1
  VOLUMETRIC BUDGET FOR ENTIRE MODEL AT END OF TIME STEP    8, STRESS PERIOD   3
  ------------------------------------------------------------------------------

     CUMULATIVE VOLUMES      L**3       RATES FOR THIS TIME STEP      L**3/T
     ------------------                 ------------------------

           IN:                                      IN:
           ---                                      ---
             STORAGE     =         124.5310               STORAGE     =       1.8022E-09
       CONSTANT HEAD     =           0.0000         CONSTANT HEAD     =           0.0000
               WELLS     =           0.0000                 WELLS     =           0.0000
              DRAINS     =           0.0000                DRAINS     =           0.0000
     HEAD DEP BOUNDS     =        2575.1702       HEAD DEP BOUNDS     =         117.7735

                TOTAL IN =        2699.7012                  TOTAL IN =         117.7735

          OUT:                                     OUT:
          ----                                     ----
             STORAGE     =          58.4152               STORAGE     =       4.6831E-02
       CONSTANT HEAD     =           0.0000         CONSTANT HEAD     =           0.0000
               WELLS     =        2609.9026                 WELLS     =         116.8853
              DRAINS     =          31.3863                DRAINS     =           0.8394
     HEAD DEP BOUNDS     =           0.0000       HEAD DEP BOUNDS     =           0.0000

               TOTAL OUT =        2699.7041                 TOTAL OUT =         117.7716

                IN - OUT =      -2.9297E-03                  IN - OUT =       1.9073E-03

     PERCENT DISCREPANCY =          -0.00         PERCENT DISCREPANCY =           0.00






         TIME SUMMARY AT END OF TIME STEP    8 IN STRESS PERIOD    3
                    SECONDS     MINUTES      HOURS       DAYS        YEARS
                    -----------------------------------------------------------
   TIME STEP LENGTH  86400.      1440.0      24.000      1.0000     2.73785E-03
 STRESS PERIOD TIME 6.91200E+05  11520.      192.00      8.0000     2.19028E-02
         TOTAL TIME 2.41920E+06  40320.      672.00      28.000     7.66598E-02
1
 
 SOLVING FOR HEAD 
                                                   Max.-Head-Change                         Max.-Flux-Residual
  Residual-Control   Outer-Iter.   Inner-Iter.     Column Row Layer    Maximum-Head-Change  Column Row Layer    Maximum-Flux-Residual          L2-NORM 
          0                 1           5            88    1    37       0.9808984808E-02      77    1   37         0.1283017734E-02      0.6410152965E-02
          0                 2           1            69    1    39       0.6343968661E-04      97    1   39        -0.6519070478E-04      0.3901210770E-03
          0                 3           1            69    1    35       0.4976267130E-04      69    1   39         0.3478078695E-04      0.2586238205E-03
          0                 4           1            56    1    18       0.3679966810E-04      73    1   39         0.2449047123E-04      0.2191391353E-03
          0                 5           1            56    1    30       0.3418069743E-04      37    1   21         0.2196452070E-04      0.1918885543E-03
          0                 6           1            56    1    18       0.3426489079E-04      35    1   23         0.1641956374E-04      0.1743843174E-03
          0                 7           1            56    1    30       0.2655839566E-04      37    1   21         0.1952283938E-04      0.1575203812E-03
          0                 8           1            56    1    18       0.3187987624E-04      35    1   23         0.1354214001E-04      0.1448941426E-03
          0                 9           1            56    1    30       0.2053715125E-04      37    1   21         0.1739639845E-04      0.1315390753E-03
          0                10           1            56    1    18       0.3028407600E-04      35    1   23         0.1104989320E-04      0.1211137073E-03
                                                   Max.-Head-Change                         Max.-Flux-Residual
  Residual-Control   Outer-Iter.   Inner-Iter.     Column Row Layer    Maximum-Head-Change  Column Row Layer    Maximum-Flux-Residual          L2-NORM 
          0                11           1            56    1    30       0.1576956943E-04      37    1   21         0.1538675872E-04      0.1096506035E-03
          0                12           1            56    1    18       0.2947597886E-04      35    1   23         0.8853477823E-05      0.1005557900E-03

    ------------------------------------------------
       NWT REQUIRED           12 OUTER ITERATIONS 
       AND A TOTAL OF         16 INNER ITERATIONS.
    ------------------------------------------------

 OUTPUT CONTROL FOR STRESS PERIOD    3   TIME STEP    9
    PRINT BUDGET
    SAVE HEAD FOR ALL LAYERS
    SAVE DRAWDOWN FOR ALL LAYERS
    SAVE BUDGET
 UBDSV1 SAVING "         STORAGE" ON UNIT  40 AT TIME STEP  9, STRESS PERIOD   3
 UBDSV2 SAVING "   CONSTANT HEAD" ON UNIT  40 AT TIME STEP  9, STRESS PERIOD   3
 UBDSV1 SAVING "FLOW RIGHT FACE " ON UNIT  40 AT TIME STEP  9, STRESS PERIOD   3
 UBDSV1 SAVING "FLOW LOWER FACE " ON UNIT  40 AT TIME STEP  9, STRESS PERIOD   3
 UBDSV4 SAVING "           WELLS" ON UNIT  40 AT TIME STEP  9, STRESS PERIOD   3
 
 WELLS WITH REDUCED PUMPING FOR STRESS PERIOD     3 TIME STEP     9
   LAY   ROW   COL         APPL.Q          ACT.Q        GW-HEAD       CELL-BOT
    37     1    21  -0.100000E+03  -0.967572E+02   0.263381E+01   0.250000E+01
    37     1    60  -0.100000E+03  -0.201399E+02   0.351441E+01   0.350000E+01
 
 UBDSV4 SAVING "          DRAINS" ON UNIT  40 AT TIME STEP  9, STRESS PERIOD   3
 UBDSV4 SAVING " HEAD DEP BOUNDS" ON UNIT  40 AT TIME STEP  9, STRESS PERIOD   3

 SAVING SATURATED THICKNESS AND FLOW TERMS ON UNIT  333 FOR MT3DMS
 BY THE LINK-MT3DMS PACKAGE V7 AT TIME STEP    9, STRESS PERIOD    3


 HEAD WILL BE SAVED ON UNIT    2 AT END OF TIME STEP    9, STRESS PERIOD    3

 DRAWDOWN WILL BE SAVED ON UNIT   14 AT END OF TIME STEP    9, STRESS PERIOD    3
1
  VOLUMETRIC BUDGET FOR ENTIRE MODEL AT END OF TIME STEP    9, STRESS PERIOD   3
  ------------------------------------------------------------------------------

     CUMULATIVE VOLUMES      L**3       RATES FOR THIS TIME STEP      L**3/T
     ------------------                 ------------------------

           IN:                                      IN:
           ---                                      ---
             STORAGE     =         124.5310               STORAGE     =       1.7962E-09
       CONSTANT HEAD     =           0.0000         CONSTANT HEAD     =           0.0000
               WELLS     =           0.0000                 WELLS     =           0.0000
              DRAINS     =           0.0000                DRAINS     =           0.0000
     HEAD DEP BOUNDS     =        2692.9424       HEAD DEP BOUNDS     =         117.7723

                TOTAL IN =        2817.4734                  TOTAL IN =         117.7723

          OUT:                                     OUT:
          ----                                     ----
             STORAGE     =          58.4403               STORAGE     =       2.5024E-02
       CONSTANT HEAD     =           0.0000         CONSTANT HEAD     =           0.0000
               WELLS     =        2726.7998                 WELLS     =         116.8971
              DRAINS     =          32.2346                DRAINS     =           0.8484
     HEAD DEP BOUNDS     =           0.0000       HEAD DEP BOUNDS     =           0.0000

               TOTAL OUT =        2817.4746                 TOTAL OUT =         117.7705

                IN - OUT =      -1.2207E-03                  IN - OUT =       1.7929E-03

     PERCENT DISCREPANCY =          -0.00         PERCENT DISCREPANCY =           0.00






         TIME SUMMARY AT END OF TIME STEP    9 IN STRESS PERIOD    3
                    SECONDS     MINUTES      HOURS       DAYS        YEARS
                    -----------------------------------------------------------
   TIME STEP LENGTH  86400.      1440.0      24.000      1.0000     2.73785E-03
 STRESS PERIOD TIME 7.77600E+05  12960.      216.00      9.0000     2.46407E-02
         TOTAL TIME 2.50560E+06  41760.      696.00      29.000     7.93977E-02
1
 
 SOLVING FOR HEAD 
                                                   Max.-Head-Change                         Max.-Flux-Residual
  Residual-Control   Outer-Iter.   Inner-Iter.     Column Row Layer    Maximum-Head-Change  Column Row Layer    Maximum-Flux-Residual          L2-NORM 
          0                 1           4            88    1    37       0.5840641741E-02      83    1   37         0.7550859369E-03      0.3736883177E-02
          0                 2           1            70    1    26       0.1267433620E-03      69    1   36        -0.1584361910E-03      0.4458094528E-03
          0                 3           1            69    1    35       0.9632899767E-04      73    1   39         0.6315329635E-04      0.2590698813E-03
          0                 4           1            70    1    26       0.5716719982E-04      74    1   38         0.3589097431E-04      0.1865085744E-03
          0                 5           1            69    1    35       0.4244808777E-04      69    1   39         0.3003752370E-04      0.1464589764E-03
          0                 6           1            70    1    26       0.2892624980E-04      78    1   38         0.1982160497E-04      0.1211264905E-03
          0                 7           1            69    1    35       0.2185946453E-04      75    1   39         0.1811892910E-04      0.1044781700E-03

    ------------------------------------------------
       NWT REQUIRED            7 OUTER ITERATIONS 
       AND A TOTAL OF         10 INNER ITERATIONS.
    ------------------------------------------------

 OUTPUT CONTROL FOR STRESS PERIOD    3   TIME STEP   10
    PRINT BUDGET
    SAVE HEAD FOR ALL LAYERS
    SAVE DRAWDOWN FOR ALL LAYERS
    SAVE BUDGET
 UBDSV1 SAVING "         STORAGE" ON UNIT  40 AT TIME STEP 10, STRESS PERIOD   3
 UBDSV2 SAVING "   CONSTANT HEAD" ON UNIT  40 AT TIME STEP 10, STRESS PERIOD   3
 UBDSV1 SAVING "FLOW RIGHT FACE " ON UNIT  40 AT TIME STEP 10, STRESS PERIOD   3
 UBDSV1 SAVING "FLOW LOWER FACE " ON UNIT  40 AT TIME STEP 10, STRESS PERIOD   3
 UBDSV4 SAVING "           WELLS" ON UNIT  40 AT TIME STEP 10, STRESS PERIOD   3
 
 WELLS WITH REDUCED PUMPING FOR STRESS PERIOD     3 TIME STEP    10
   LAY   ROW   COL         APPL.Q          ACT.Q        GW-HEAD       CELL-BOT
    37     1    21  -0.100000E+03  -0.967576E+02   0.263381E+01   0.250000E+01
    37     1    60  -0.100000E+03  -0.201450E+02   0.351442E+01   0.350000E+01
 
 UBDSV4 SAVING "          DRAINS" ON UNIT  40 AT TIME STEP 10, STRESS PERIOD   3
 UBDSV4 SAVING " HEAD DEP BOUNDS" ON UNIT  40 AT TIME STEP 10, STRESS PERIOD   3

 SAVING SATURATED THICKNESS AND FLOW TERMS ON UNIT  333 FOR MT3DMS
 BY THE LINK-MT3DMS PACKAGE V7 AT TIME STEP   10, STRESS PERIOD    3


 HEAD WILL BE SAVED ON UNIT    2 AT END OF TIME STEP   10, STRESS PERIOD    3

 DRAWDOWN WILL BE SAVED ON UNIT   14 AT END OF TIME STEP   10, STRESS PERIOD    3
1
  VOLUMETRIC BUDGET FOR ENTIRE MODEL AT END OF TIME STEP   10, STRESS PERIOD   3
  ------------------------------------------------------------------------------

     CUMULATIVE VOLUMES      L**3       RATES FOR THIS TIME STEP      L**3/T
     ------------------                 ------------------------

           IN:                                      IN:
           ---                                      ---
             STORAGE     =         124.5310               STORAGE     =       1.7940E-09
       CONSTANT HEAD     =           0.0000         CONSTANT HEAD     =           0.0000
               WELLS     =           0.0000                 WELLS     =           0.0000
              DRAINS     =           0.0000                DRAINS     =           0.0000
     HEAD DEP BOUNDS     =        2810.7144       HEAD DEP BOUNDS     =         117.7719

                TOTAL IN =        2935.2454                  TOTAL IN =         117.7719

          OUT:                                     OUT:
          ----                                     ----
             STORAGE     =          58.4540               STORAGE     =       1.3758E-02
       CONSTANT HEAD     =           0.0000         CONSTANT HEAD     =           0.0000
               WELLS     =        2843.7024                 WELLS     =         116.9026
              DRAINS     =          33.0883                DRAINS     =           0.8537
     HEAD DEP BOUNDS     =           0.0000       HEAD DEP BOUNDS     =           0.0000

               TOTAL OUT =        2935.2449                 TOTAL OUT =         117.7700

                IN - OUT =       4.8828E-04                  IN - OUT =       1.8234E-03

     PERCENT DISCREPANCY =           0.00         PERCENT DISCREPANCY =           0.00






         TIME SUMMARY AT END OF TIME STEP   10 IN STRESS PERIOD    3
                    SECONDS     MINUTES      HOURS       DAYS        YEARS
                    -----------------------------------------------------------
   TIME STEP LENGTH  86400.      1440.0      24.000      1.0000     2.73785E-03
 STRESS PERIOD TIME 8.64000E+05  14400.      240.00      10.000     2.73785E-02
         TOTAL TIME 2.59200E+06  43200.      720.00      30.000     8.21355E-02
1

 Run end date and time (yyyy/mm/dd hh:mm:ss): 2023/05/24 22:56:16
 Elapsed run time:  1.204 Seconds

