                                  MODFLOW-NWT-SWR1 
      U.S. GEOLOGICAL SURVEY MODULAR FINITE-DIFFERENCE GROUNDWATER-FLOW MODEL
                            VERSION 1.2.0 03/01/2020
                    BASED ON MODFLOW-2005 VERSION 1.12.00 02/03/2017

 LIST FILE: CASE5.out
                         UNIT    1

 OPENING CASE5.hed
 FILE TYPE:DATA(BINARY)   UNIT    2   STATUS:UNKNOWN
 FORMAT:BINARY                 ACCESS:SEQUENTIAL          

 OPENING CASE5.drw
 FILE TYPE:DATA(BINARY)   UNIT   12   STATUS:UNKNOWN
 FORMAT:BINARY                 ACCESS:SEQUENTIAL          

 OPENING CASE5.ccf
 FILE TYPE:DATA(BINARY)   UNIT   40   STATUS:UNKNOWN
 FORMAT:BINARY                 ACCESS:SEQUENTIAL          

 OPENING CASE5.lmt6
 FILE TYPE:LMT6   UNIT    3   STATUS:OLD    
 FORMAT:FORMATTED              ACCESS:SEQUENTIAL          

 OPENING CASE5.dis
 FILE TYPE:DIS   UNIT    4   STATUS:OLD    
 FORMAT:FORMATTED              ACCESS:SEQUENTIAL          

 OPENING CASE5.ba6
 FILE TYPE:BAS6   UNIT    7   STATUS:OLD    
 FORMAT:FORMATTED              ACCESS:SEQUENTIAL          

 OPENING CASE5.upw
 FILE TYPE:UPW   UNIT    8   STATUS:OLD    
 FORMAT:FORMATTED              ACCESS:SEQUENTIAL          

 OPENING CASE5.oc
 FILE TYPE:OC   UNIT    9   STATUS:OLD    
 FORMAT:FORMATTED              ACCESS:SEQUENTIAL          

 OPENING CASE5.rch
 FILE TYPE:RCH   UNIT   10   STATUS:OLD    
 FORMAT:FORMATTED              ACCESS:SEQUENTIAL          

 OPENING CASE5.nwt
 FILE TYPE:NWT   UNIT   11   STATUS:OLD    
 FORMAT:FORMATTED              ACCESS:SEQUENTIAL          

 BAS -- BASIC PACKAGE, VERSION 1.2.0, 3/01/2020 INPUT READ FROM UNIT    7
 
 MODFLOW was compiled using mixed precision
 Precision of REAL variables:           6
 Precision of DOUBLE PRECISION variables:          15

 DISCRETIZATION INPUT DATA READ FROM UNIT    4
 # MF2K DISCRETIZATION FILE
 #
 #
 # NLAY NROW NCOL NPER TIMEUNITS LENUNITS
    1 LAYERS       400 ROWS       400 COLUMNS
    1 STRESS PERIOD(S) IN SIMULATION
 MODEL TIME UNIT IS DAYS
 MODEL LENGTH UNIT IS METERS
  Confining bed flag for each layer:
   0

                     DELR =   20.0000    

                     DELC =   20.0000    

 TOP ELEVATION OF LAYER 1 =   200.000    



             MODEL LAYER BOTTOM EL. FOR LAYER   1
 READING ON UNIT    4 WITH FORMAT: (FREE)              


 STRESS PERIOD     LENGTH       TIME STEPS     MULTIPLIER FOR DELT    SS FLAG
 ----------------------------------------------------------------------------
        1         1.000000          1                    1.000         SS

 STEADY-STATE SIMULATION



 
 THE FREE FORMAT OPTION HAS BEEN SELECTED



                     BOUNDARY ARRAY FOR LAYER   1
 READING ON UNIT    7 WITH FORMAT: (FREE)              

 AQUIFER HEAD WILL BE SET TO  -999.00     AT ALL NO-FLOW NODES (IBOUND=0).



                       INITIAL HEAD FOR LAYER   1
 READING ON UNIT    7 WITH FORMAT: (FREE)              

 OUTPUT CONTROL IS SPECIFIED ONLY AT TIME STEPS FOR WHICH OUTPUT IS DESIRED
 COMPACT CELL-BY-CELL BUDGET FILES WILL BE WRITTEN
 AUXILIARY DATA WILL BE SAVED IN CELL-BY-CELL BUDGET FILES
 HEAD PRINT FORMAT CODE IS   0    DRAWDOWN PRINT FORMAT CODE IS   0
 HEADS WILL BE SAVED ON UNIT    2    DRAWDOWNS WILL BE SAVED ON UNIT   12
 #

 NWT1 -- Newton Solver, VERSION 1.2.0, 3/01/2020
         INPUT READ FROM UNIT 11

 COMPLEX OPTION:
 DEFAULT SOLVER INPUT VALUES REFLECT STRONGLY NONLINEAR MODEL
 ***XMD linear solver will be used***
 
   CONVERGENCE CRITERION OF   0.100000E-03 FOR HEAD SOLUTION
   AND A TOLERANCE OF   0.100000E-03 FOR FLOW SOLUTION AND 
   A MAXIMUM OF 10000 OUTER ITERATIONS. 


   D-B-D REDUCTION FACTOR OF    0.850000E+00 AND 
   A D-B-D INCREASE FACTOR OF    0.100000E-04 AND 
   A D-B-D RELAXATION OF    0.000000E+00 AND 
   A MOMENTUM FACTOR OF    0.100000E+00 .


   BACKTRACKING IS ACTIVE 
   THE MAXIMUM NUMBER OF BACKTRACKS IS    50 AND 
   THE BACKTRACKING TOLERANCE IS    0.110000E+01 AND
   THE BACKTRACKING REDUCTION FACTOR IS    0.700000E+00

 XMD -- LINEAR SOLUTION BY XMD PACKAGE VERSION 1.30
     BY MOTOMU IBARAKI, OHIO STATE UNIVERSITY, COLOMBUS, OH
                 INPUT READ FROM UNIT 11
 ACCELERATION METHOD                    (IACL) =         2
 NODE ORDERING FLAG                   (NORDER) =         0
 LEVEL OF FILL                         (LEVEL) =        15
 MAXIMUM NUMBER OF ORTHOGONALIZATIONS  (NORTH) =         1
 INDEX FOR USING REDUCED SYSTEM      (IREDSYS) =         1
 RESID. REDUCTION CONVERGE CRITERION  (RRCTOL) =  0.000000E+00
 INDEX FOR USING DROP TOLERANCE     (IDROPTOL) =         1
 DROP TOLERANCE VALUE                  (EPSRN) =  0.100000E-02
 CONVERGENCE CRITERIA OF           (HCLOSEXMD) =  0.100000E-03
 MAX. NUMBER OF LINEAR ITERATIONS  (MXITERXMD) =       200


 UPW1 -- UPSTREAM WEIGHTING FLOW PACKAGE, VERSION 1.2.0, 3/01/2020
         INPUT READ FROM UNIT  8

 CELL-BY-CELL FLOWS WILL BE SAVED ON UNIT   40
 No named parameters

   LAYER FLAGS:
 LAYER       LAYTYP          LAYAVG    CHANI           LAYVKA           LAYWET
 ---------------------------------------------------------------------------
    1             1             0    -1.000E+00             1             0

   INTERPRETATION OF LAYER FLAGS:
                        INTERBLOCK     HORIZONTAL    DATA IN
         LAYER TYPE   TRANSMISSIVITY   ANISOTROPY   ARRAY VKA   WETTABILITY
 LAYER   (LAYTYP)        (LAYAVG)      (CHANI)     (LAYVKA)       (LAYWET)
 ---------------------------------------------------------------------------
    1   CONVERTIBLE      HARMONIC      VARIABLE    ANISOTROPY  NON-WETTABLE

    HYD. COND. ALONG ROWS =   1.00000     FOR LAYER   1

   HORIZ. ANI. (COL./ROW) =   1.00000     FOR LAYER   1

  HORIZ. TO VERTICAL ANI. =   3.00000     FOR LAYER   1

 RCH -- RECHARGE PACKAGE, VERSION 7, 5/2/2005 INPUT READ FROM UNIT   10
 #
 No named parameters
 OPTION 3 -- RECHARGE TO HIGHEST ACTIVE NODE IN EACH VERTICAL COLUMN
 CELL-BY-CELL FLOWS WILL BE SAVED ON UNIT   40


     0 Recharge parameters

 WARNING READING LMT PACKAGE INPUT DATA:
 [STANDARD] HEADER NO LONGER SUPPORTED; [EXTENDED] HEADER USED INSTEAD.


 ***Link-MT3DMS Package v7***
 OPENING LINK-MT3DMS OUTPUT FILE: CASE5.hff                                                                                                                                                                                               
 ON UNIT NUMBER:   333
 FILE TYPE: UNFORMATTED
 HEADER OPTION: EXTENDED
 ***Link-MT3DMS Package v7***

1
                            STRESS PERIOD NO.    1, LENGTH =   1.000000    
                            -----------------------------------------------

                              NUMBER OF TIME STEPS =     1

                               MULTIPLIER FOR DELT =     1.000

                            INITIAL TIME STEP SIZE =   1.000000    



                           RECHARGE
 READING ON UNIT   10 WITH FORMAT: (FREE)              
 
 SOLVING FOR HEAD 
                                                   Max.-Head-Change                        Max.-Flux-Residual
  Residual-Control   Outer-Iter.   Inner-Iter.     Column Row Layer    Max.-Head-Change    Column Row Layer    Max.-Flux-Residual            L2-New               L2-Old           Solver-Max-Delh
          0                 1          68           156  396     1      -0.1999999538E+02     395  175    1      -0.1678670559E+02      0.1184154882E+03      0.0000000000E+00     -0.1999999538E+02
          1                 1           0           156  396     1      -0.1399999653E+02     365  323    1       0.2053618149E+03      0.6478659189E+04      0.1184154882E+03     -0.1999999538E+02
          2                 1           0           156  396     1      -0.9799997401E+01     375  328    1       0.1465426567E+02      0.4565873802E+03      0.6478659189E+04     -0.1999999538E+02
          0                 2          66           381  286     1      -0.1153261774E+02     340  304    1      -0.1082197255E+03      0.3441184859E+04      0.4565873802E+03     -0.1153261774E+02
          0                 3         115             3  400     1       0.6180523620E+04     360  266    1       0.6992988101E+02      0.1957895617E+04      0.3441184859E+04      0.6180523620E+04
          1                 3           0             3  400     1       0.4326366460E+04       3  398    1      -0.5464677467E+06      0.6975852968E+06      0.1957895617E+04      0.6180523620E+04
          2                 3           0             3  400     1       0.3028456471E+04       3  398    1      -0.3825150992E+06      0.4890290023E+06      0.6975852968E+06      0.6180523620E+04
          3                 3           0             3  400     1       0.2119919493E+04       3  398    1      -0.2677482479E+06      0.3431755307E+06      0.4890290023E+06      0.6180523620E+04
          4                 3           0             3  400     1       0.1483943620E+04       3  398    1      -0.1874114534E+06      0.2411015255E+06      0.3431755307E+06      0.6180523620E+04
          5                 3           0             3  400     1       0.1038760516E+04       3  398    1      -0.1311756981E+06      0.1693926268E+06      0.2411015255E+06      0.6180523620E+04
                                                   Max.-Head-Change                        Max.-Flux-Residual
  Residual-Control   Outer-Iter.   Inner-Iter.     Column Row Layer    Max.-Head-Change    Column Row Layer    Max.-Flux-Residual            L2-New               L2-Old           Solver-Max-Delh
          6                 3           0             3  400     1       0.7271323491E+03       3  398    1      -0.9181067016E+05      0.1191990776E+06      0.1693926268E+06      0.6180523620E+04
          7                 3           0             3  400     1       0.5089926357E+03       3  398    1      -0.6425515104E+05      0.8389903483E+05      0.1191990776E+06      0.6180523620E+04
          8                 3           0             3  400     1       0.3562948389E+03       3  398    1      -0.4496628798E+05      0.5892146358E+05      0.8389903483E+05      0.6180523620E+04
          9                 3           0             3  400     1       0.2494063830E+03       3  398    1      -0.3146408407E+05      0.4099135860E+05      0.5892146358E+05      0.6180523620E+04
         10                 3           0             3  400     1       0.1745844651E+03       3  398    1      -0.2201254150E+05      0.2832082598E+05      0.4099135860E+05      0.6180523620E+04
         11                 3           0             3  400     1       0.1222091235E+03       3  398    1      -0.1539646181E+05      0.1881695279E+05      0.2832082598E+05      0.6180523620E+04
         12                 3           0             3  400     1       0.8554638499E+02       3  398    1      -0.7715614859E+04      0.9617344866E+04      0.1881695279E+05      0.6180523620E+04
         13                 3           0             3  400     1       0.5988246848E+02       3  398    1      -0.3779601502E+04      0.5169376358E+04      0.9617344866E+04      0.6180523620E+04
         14                 3           0             3  400     1       0.4191772722E+02       3  398    1      -0.1851255634E+04      0.3315998165E+04      0.5169376358E+04      0.6180523620E+04
         15                 3           0             3  400     1       0.2934240855E+02       3  398    1      -0.9065766187E+03      0.2694925509E+04      0.3315998165E+04      0.6180523620E+04
                                                   Max.-Head-Change                        Max.-Flux-Residual
  Residual-Control   Outer-Iter.   Inner-Iter.     Column Row Layer    Max.-Head-Change    Column Row Layer    Max.-Flux-Residual            L2-New               L2-Old           Solver-Max-Delh
         16                 3           0             3  400     1       0.2053968564E+02       3  398    1      -0.4438312163E+03      0.2528852285E+04      0.2694925509E+04      0.6180523620E+04
         17                 3           0             3  400     1       0.1437777970E+02       3  398    1      -0.2171890864E+03      0.2491289070E+04      0.2528852285E+04      0.6180523620E+04
         18                 3           0             3  400     1       0.1006444562E+02       3  398    1      -0.1062066232E+03      0.2484896301E+04      0.2491289070E+04      0.6180523620E+04
          0                 4         200            79    1     1       0.2674390802E+08     367  274    1       0.7010241156E+02      0.2485231060E+04      0.2484896301E+04      0.2674390802E+08
          1                 4           0            79    1     1       0.1872073530E+08      79    1    1      -0.1018113554E+11      0.1371262268E+11      0.2485231060E+04      0.2674390802E+08
          2                 4           0            79    1     1       0.1310451448E+08      79    1    1      -0.7126794757E+10      0.9598835702E+10      0.1371262268E+11      0.2674390802E+08
          3                 4           0            79    1     1       0.9173159982E+07      79    1    1      -0.4988756245E+10      0.6719184866E+10      0.9598835702E+10      0.2674390802E+08
          4                 4           0            79    1     1       0.6421211878E+07      79    1    1      -0.3492129312E+10      0.4703429315E+10      0.6719184866E+10      0.2674390802E+08
          5                 4           0            79    1     1       0.4494848238E+07      79    1    1      -0.2444490476E+10      0.3292400454E+10      0.4703429315E+10      0.2674390802E+08
          6                 4           0            79    1     1       0.3146393713E+07      79    1    1      -0.1711143304E+10      0.2304680260E+10      0.3292400454E+10      0.2674390802E+08
                                                   Max.-Head-Change                        Max.-Flux-Residual
  Residual-Control   Outer-Iter.   Inner-Iter.     Column Row Layer    Max.-Head-Change    Column Row Layer    Max.-Flux-Residual            L2-New               L2-Old           Solver-Max-Delh
          7                 4           0            79    1     1       0.2202475562E+07      79    1    1      -0.1197800292E+10      0.1613276123E+10      0.2304680260E+10      0.2674390802E+08
          8                 4           0            79    1     1       0.1541732867E+07      79    1    1      -0.8384601901E+09      0.1129293229E+10      0.1613276123E+10      0.2674390802E+08
          9                 4           0            79    1     1       0.1079212988E+07      79    1    1      -0.5869221229E+09      0.7905052210E+09      0.1129293229E+10      0.2674390802E+08
         10                 4           0            79    1     1       0.7554490791E+06      79    1    1      -0.4108454788E+09      0.5533536242E+09      0.7905052210E+09      0.2674390802E+08
         11                 4           0            79    1     1       0.5288143463E+06      79    1    1      -0.2875918301E+09      0.3873475290E+09      0.5533536242E+09      0.2674390802E+08
         12                 4           0            79    1     1       0.3701700361E+06      79    1    1      -0.2013142774E+09      0.2711432936E+09      0.3873475290E+09      0.2674390802E+08
         13                 4           0            79    1     1       0.2591190209E+06      79    1    1      -0.1409199916E+09      0.1898009293E+09      0.2711432936E+09      0.2674390802E+08
         14                 4           0            79    1     1       0.1813833115E+06      79    1    1      -0.9864399225E+08      0.1328623299E+09      0.1898009293E+09      0.2674390802E+08
         15                 4           0            79    1     1       0.1269683159E+06      79    1    1      -0.6905079320E+08      0.9300581324E+08      0.1328623299E+09      0.2674390802E+08
         16                 4           0            79    1     1       0.8887781962E+05      79    1    1      -0.4833555422E+08      0.6510704225E+08      0.9300581324E+08      0.2674390802E+08
                                                   Max.-Head-Change                        Max.-Flux-Residual
  Residual-Control   Outer-Iter.   Inner-Iter.     Column Row Layer    Max.-Head-Change    Column Row Layer    Max.-Flux-Residual            L2-New               L2-Old           Solver-Max-Delh
         17                 4           0            79    1     1       0.6221447268E+05      79    1    1      -0.3383488718E+08      0.4557666729E+08      0.6510704225E+08      0.2674390802E+08
         18                 4           0            79    1     1       0.4355013013E+05      79    1    1      -0.2368442043E+08      0.3190610266E+08      0.4557666729E+08      0.2674390802E+08
         19                 4           0            79    1     1       0.3048509057E+05      79    1    1      -0.1657909382E+08      0.2233701172E+08      0.3190610266E+08      0.2674390802E+08
         20                 4           0            79    1     1       0.2133956304E+05      79    1    1      -0.1160536528E+08      0.1563794021E+08      0.2233701172E+08      0.2674390802E+08
         21                 4           0            79    1     1       0.1493769387E+05      79    1    1      -0.8123755361E+07      0.1094765139E+08      0.1563794021E+08      0.2674390802E+08
         22                 4           0            79    1     1       0.1045638553E+05      79    1    1      -0.5686628460E+07      0.7663624787E+07      0.1094765139E+08      0.2674390802E+08
         23                 4           0            79    1     1       0.7319469748E+04      79    1    1      -0.3980639658E+07      0.5364418200E+07      0.7663624787E+07      0.2674390802E+08
         24                 4           0            79    1     1       0.5123628736E+04      79    1    1      -0.2786447516E+07      0.3754577956E+07      0.5364418200E+07      0.2674390802E+08
         25                 4           0            79    1     1       0.3586540054E+04      79    1    1      -0.1950513032E+07      0.2625876644E+07      0.3754577956E+07      0.2674390802E+08
         26                 4           0            79    1     1       0.2510577995E+04      79    1    1      -0.1365358903E+07      0.1831689144E+07      0.2625876644E+07      0.2674390802E+08
                                                   Max.-Head-Change                        Max.-Flux-Residual
  Residual-Control   Outer-Iter.   Inner-Iter.     Column Row Layer    Max.-Head-Change    Column Row Layer    Max.-Flux-Residual            L2-New               L2-Old           Solver-Max-Delh
         27                 4           0            79    1     1       0.1757404567E+04      79    1    1      -0.9557510191E+06      0.1270164197E+07      0.1831689144E+07      0.2674390802E+08
         28                 4           0            79    1     1       0.1230183176E+04      79    1    1      -0.6690255055E+06      0.8755510173E+06      0.1270164197E+07      0.2674390802E+08
         29                 4           0            79    1     1       0.8611282084E+03      79    1    1      -0.4683176494E+06      0.5981582440E+06      0.8755510173E+06      0.2674390802E+08
         30                 4           0            79    1     1       0.6027897356E+03      79    1    1      -0.3278221526E+06      0.4055582074E+06      0.5981582440E+06      0.2674390802E+08
         31                 4           0            79    1     1       0.4219528077E+03      79    1    1      -0.2294753065E+06      0.2766462548E+06      0.4055582074E+06      0.2674390802E+08
         32                 4           0            79    1     1       0.2953669604E+03      79    1    1      -0.1606325153E+06      0.1901532863E+06      0.2766462548E+06      0.2674390802E+08
         33                 4           0            79    1     1       0.2067568687E+03      79    1    1      -0.1124425624E+06      0.1315201032E+06      0.1901532863E+06      0.2674390802E+08
         34                 4           0            79    1     1       0.1447298057E+03      79    1    1      -0.7870959588E+05      0.9113905923E+05      0.1315201032E+06      0.2674390802E+08
         35                 4           0            79    1     1       0.1013108622E+03      79    1    1      -0.5291484394E+05      0.6111771831E+05      0.9113905923E+05      0.2674390802E+08
         36                 4           0            79    1     1       0.7091760236E+02      79    1    1      -0.2592756201E+05      0.2994806792E+05      0.6111771831E+05      0.2674390802E+08
                                                   Max.-Head-Change                        Max.-Flux-Residual
  Residual-Control   Outer-Iter.   Inner-Iter.     Column Row Layer    Max.-Head-Change    Column Row Layer    Max.-Flux-Residual            L2-New               L2-Old           Solver-Max-Delh
         37                 4           0            79    1     1       0.4964232080E+02      79    1    1      -0.1270400751E+05      0.1467649433E+05      0.2994806792E+05      0.2674390802E+08
         38                 4           0            79    1     1       0.3474962397E+02      79    1    1      -0.6224615257E+04      0.7196248728E+04      0.1467649433E+05      0.2674390802E+08
         39                 4           0            79    1     1       0.2432473637E+02      79    1    1      -0.3049817628E+04      0.3536435595E+04      0.7196248728E+04      0.2674390802E+08
          0                 5         105            85  238     1       0.7784494805E+08      79    1    1      -0.1494239969E+04      0.1754053869E+04      0.3536435595E+04      0.7784494805E+08
          1                 5           0            85  238     1       0.5449146271E+08      85  238    1      -0.2794831891E+11      0.7741078824E+11      0.1754053869E+04      0.7784494805E+08
          2                 5           0            85  238     1       0.3814402325E+08      85  238    1      -0.1956382291E+11      0.5418755083E+11      0.7741078824E+11      0.7784494805E+08
          3                 5           0            85  238     1       0.2670081582E+08      85  238    1      -0.1369467580E+11      0.3793128492E+11      0.5418755083E+11      0.7784494805E+08
          4                 5           0            85  238     1       0.1869057075E+08      85  238    1      -0.9586272897E+10      0.2655189897E+11      0.3793128492E+11      0.7784494805E+08
          5                 5           0            85  238     1       0.1308339931E+08      85  238    1      -0.6710390913E+10      0.1858632895E+11      0.2655189897E+11      0.7784494805E+08
          6                 5           0            85  238     1       0.9158379358E+07      85  238    1      -0.4697273559E+10      0.1301043003E+11      0.1858632895E+11      0.7784494805E+08
                                                   Max.-Head-Change                        Max.-Flux-Residual
  Residual-Control   Outer-Iter.   Inner-Iter.     Column Row Layer    Max.-Head-Change    Column Row Layer    Max.-Flux-Residual            L2-New               L2-Old           Solver-Max-Delh
          7                 5           0            85  238     1       0.6410865441E+07      85  238    1      -0.3288091435E+10      0.9107300867E+10      0.1301043003E+11      0.7784494805E+08
          8                 5           0            85  238     1       0.4487605732E+07      85  238    1      -0.2301663965E+10      0.6375110517E+10      0.9107300867E+10      0.7784494805E+08
          9                 5           0            85  238     1       0.3141323959E+07      85  238    1      -0.1611164748E+10      0.4462577319E+10      0.6375110517E+10      0.7784494805E+08
         10                 5           0            85  238     1       0.2198926734E+07      85  238    1      -0.1127815304E+10      0.3123804122E+10      0.4462577319E+10      0.7784494805E+08
         11                 5           0            85  238     1       0.1539248688E+07      85  238    1      -0.7894706989E+09      0.2186662911E+10      0.3123804122E+10      0.7784494805E+08
         12                 5           0            85  238     1       0.1077474063E+07      85  238    1      -0.5526294795E+09      0.1530664070E+10      0.2186662911E+10      0.7784494805E+08
         13                 5           0            85  238     1       0.7542318312E+06      85  238    1      -0.3868406288E+09      0.1071464975E+10      0.1530664070E+10      0.7784494805E+08
         14                 5           0            85  238     1       0.5279622729E+06      85  238    1      -0.2707884352E+09      0.7500260513E+09      0.1071464975E+10      0.7784494805E+08
         15                 5           0            85  238     1       0.3695735847E+06      85  238    1      -0.1895519011E+09      0.5250203816E+09      0.7500260513E+09      0.7784494805E+08
         16                 5           0            85  238     1       0.2587015049E+06      85  238    1      -0.1326863282E+09      0.3675175708E+09      0.5250203816E+09      0.7784494805E+08
                                                   Max.-Head-Change                        Max.-Flux-Residual
  Residual-Control   Outer-Iter.   Inner-Iter.     Column Row Layer    Max.-Head-Change    Column Row Layer    Max.-Flux-Residual            L2-New               L2-Old           Solver-Max-Delh
         17                 5           0            85  238     1       0.1810910503E+06      85  238    1      -0.9288042784E+08      0.2572668421E+09      0.3675175708E+09      0.7784494805E+08
         18                 5           0            85  238     1       0.1267637331E+06      85  238    1      -0.6501629806E+08      0.1800904914E+09      0.2572668421E+09      0.7784494805E+08
         19                 5           0            85  238     1       0.8873461164E+05      85  238    1      -0.4551140755E+08      0.1260683064E+09      0.1800904914E+09      0.7784494805E+08
         20                 5           0            85  238     1       0.6211422709E+05      85  238    1      -0.3185798443E+08      0.8825197779E+08      0.1260683064E+09      0.7784494805E+08
         21                 5           0            85  238     1       0.4347995822E+05      85  238    1      -0.2230058840E+08      0.6177943288E+08      0.8825197779E+08      0.7784494805E+08
         22                 5           0            85  238     1       0.3043597024E+05      85  238    1      -0.1561041130E+08      0.4324799866E+08      0.6177943288E+08      0.7784494805E+08
         23                 5           0            85  238     1       0.2130517880E+05      85  238    1      -0.1092728741E+08      0.3027582910E+08      0.4324799866E+08      0.7784494805E+08
         24                 5           0            85  238     1       0.1491362491E+05      85  238    1      -0.7649100738E+07      0.2119466434E+08      0.3027582910E+08      0.7784494805E+08
         25                 5           0            85  238     1       0.1043953726E+05      85  238    1      -0.5354370109E+07      0.1483734529E+08      0.2119466434E+08      0.7784494805E+08
         26                 5           0            85  238     1       0.7307675957E+04      85  238    1      -0.3748058696E+07      0.1038724653E+08      0.1483734529E+08      0.7784494805E+08
                                                   Max.-Head-Change                        Max.-Flux-Residual
  Residual-Control   Outer-Iter.   Inner-Iter.     Column Row Layer    Max.-Head-Change    Column Row Layer    Max.-Flux-Residual            L2-New               L2-Old           Solver-Max-Delh
         27                 5           0            85  238     1       0.5115373082E+04      85  238    1      -0.2623640726E+07      0.7271874936E+07      0.1038724653E+08      0.7784494805E+08
         28                 5           0            85  238     1       0.3580761097E+04      85  238    1      -0.1836548160E+07      0.5090157652E+07      0.7271874936E+07      0.7784494805E+08
         29                 5           0            85  238     1       0.2506532725E+04      85  238    1      -0.1285583374E+07      0.3562535283E+07      0.5090157652E+07      0.7784494805E+08
         30                 5           0            85  238     1       0.1754572878E+04      85  238    1      -0.8999080296E+06      0.2491271014E+07      0.3562535283E+07      0.7784494805E+08
         31                 5           0            85  238     1       0.1228200993E+04      85  238    1      -0.6299352934E+06      0.1737627913E+07      0.2491271014E+07      0.7784494805E+08
         32                 5           0            85  238     1       0.8597406808E+03      85  238    1      -0.4409543813E+06      0.1208998715E+07      0.1737627913E+07      0.7784494805E+08
         33                 5           0            85  238     1       0.6018184663E+03      85  238    1      -0.3086677451E+06      0.8351506510E+06      0.1208998715E+07      0.7784494805E+08
         34                 5           0            85  238     1       0.4212729192E+03      85  238    1      -0.2160671013E+06      0.5720219127E+06      0.8351506510E+06      0.7784494805E+08
         35                 5           0            85  238     1       0.2948910384E+03      85  238    1      -0.1512466517E+06      0.3830746789E+06      0.5720219127E+06      0.7784494805E+08
         36                 5           0            85  238     1       0.2064237234E+03      85  238    1      -0.1058723378E+06      0.2548387175E+06      0.3830746789E+06      0.7784494805E+08
                                                   Max.-Head-Change                        Max.-Flux-Residual
  Residual-Control   Outer-Iter.   Inner-Iter.     Column Row Layer    Max.-Head-Change    Column Row Layer    Max.-Flux-Residual            L2-New               L2-Old           Solver-Max-Delh
         37                 5           0            85  238     1       0.1444966039E+03      85  238    1      -0.7411031862E+05      0.1669738382E+06      0.2548387175E+06      0.7784494805E+08
         38                 5           0            85  238     1       0.1011476210E+03      85  238    1      -0.4912920106E+05      0.9421582247E+05      0.1669738382E+06      0.7784494805E+08
         39                 5           0            85  238     1       0.7080333351E+02      85  238    1      -0.2407255306E+05      0.4618914158E+05      0.9421582247E+05      0.7784494805E+08
         40                 5           0            85  238     1       0.4956233261E+02      85  238    1      -0.1179502236E+05      0.2268292634E+05      0.4618914158E+05      0.7784494805E+08
         41                 5           0            85  238     1       0.3469363224E+02      85  238    1      -0.5779190996E+04      0.1121838449E+05      0.2268292634E+05      0.7784494805E+08
         42                 5           0            85  238     1       0.2428554215E+02      85  238    1      -0.2831544664E+04      0.5705077850E+04      0.1121838449E+05      0.7784494805E+08
         43                 5           0            85  238     1       0.1699987922E+02      79    1    1      -0.1494239526E+04      0.3185950524E+04      0.5705077850E+04      0.7784494805E+08
         44                 5           0            85  238     1       0.1189991525E+02      79    1    1      -0.1494239659E+04      0.2185000261E+04      0.3185950524E+04      0.7784494805E+08
          0                 6         200           248  189     1       0.2640961423E+15      79    1    1      -0.1494239752E+04      0.1866544941E+04      0.2185000261E+04      0.2640961423E+15
          1                 6           0           248  189     1       0.1848672965E+15     248  190    1      -0.7776561541E+17      0.2908587563E+18      0.1866544941E+04      0.2640961423E+15
                                                   Max.-Head-Change                        Max.-Flux-Residual
  Residual-Control   Outer-Iter.   Inner-Iter.     Column Row Layer    Max.-Head-Change    Column Row Layer    Max.-Flux-Residual            L2-New               L2-Old           Solver-Max-Delh
          2                 6           0           248  189     1       0.1294071053E+15     248  190    1      -0.5443592986E+17      0.2036011259E+18      0.2908587563E+18      0.2640961423E+15
          3                 6           0           248  189     1       0.9058497220E+14     248  190    1      -0.3810515025E+17      0.1425207857E+18      0.2036011259E+18      0.2640961423E+15
          4                 6           0           248  189     1       0.6340947946E+14     248  190    1      -0.2667360472E+17      0.9976454832E+17      0.1425207857E+18      0.2640961423E+15
          5                 6           0           248  189     1       0.4438663487E+14     248  190    1      -0.1867152299E+17      0.6983518263E+17      0.9976454832E+17      0.2640961423E+15
          6                 6           0           248  189     1       0.3107064388E+14     248  190    1      -0.1307006587E+17      0.4888462701E+17      0.6983518263E+17      0.2640961423E+15
          7                 6           0           248  189     1       0.2174945034E+14     248  190    1      -0.9149045952E+16      0.3421923832E+17      0.4888462701E+17      0.2640961423E+15
          8                 6           0           248  189     1       0.1522461498E+14     248  190    1      -0.6404332058E+16      0.2395346642E+17      0.3421923832E+17      0.2640961423E+15
          9                 6           0           248  189     1       0.1065723031E+14     248  190    1      -0.4483032364E+16      0.1676742621E+17      0.2395346642E+17      0.2640961423E+15
         10                 6           0           248  189     1       0.7460061087E+13     248  190    1      -0.3138122601E+16      0.1173719815E+17      0.1676742621E+17      0.2640961423E+15
         11                 6           0           248  189     1       0.5222042672E+13     248  190    1      -0.2196685784E+16      0.8216038562E+16      0.1173719815E+17      0.2640961423E+15
                                                   Max.-Head-Change                        Max.-Flux-Residual
  Residual-Control   Outer-Iter.   Inner-Iter.     Column Row Layer    Max.-Head-Change    Column Row Layer    Max.-Flux-Residual            L2-New               L2-Old           Solver-Max-Delh
         12                 6           0           248  189     1       0.3655429808E+13     248  190    1      -0.1537680022E+16      0.5751226895E+16      0.8216038562E+16      0.2640961423E+15
         13                 6           0           248  189     1       0.2558800822E+13     248  190    1      -0.1076375997E+16      0.4025858758E+16      0.5751226895E+16      0.2640961423E+15
         14                 6           0           248  189     1       0.1791160545E+13     248  190    1      -0.7534631853E+15      0.2818101083E+16      0.4025858758E+16      0.2640961423E+15
         15                 6           0           248  189     1       0.1253812360E+13     248  190    1      -0.5274242207E+15      0.1972670724E+16      0.2818101083E+16      0.2640961423E+15
         16                 6           0           248  189     1       0.8776686371E+12     248  190    1      -0.3691969482E+15      0.1380869484E+16      0.1972670724E+16      0.2640961423E+15
         17                 6           0           248  189     1       0.6143680355E+12     248  190    1      -0.2584378593E+15      0.9666086220E+15      0.1380869484E+16      0.2640961423E+15
         18                 6           0           248  189     1       0.4300576175E+12     248  190    1      -0.1809064985E+15      0.6766260239E+15      0.9666086220E+15      0.2640961423E+15
         19                 6           0           248  189     1       0.3010403271E+12     248  190    1      -0.1266345468E+15      0.4736382086E+15      0.6766260239E+15      0.2640961423E+15
         20                 6           0           248  189     1       0.2107282254E+12     248  190    1      -0.8864418123E+14      0.3315467404E+15      0.4736382086E+15      0.2640961423E+15
         21                 6           0           248  189     1       0.1475097553E+12     248  190    1      -0.6205092580E+14      0.2320827143E+15      0.3315467404E+15      0.2640961423E+15
                                                   Max.-Head-Change                        Max.-Flux-Residual
  Residual-Control   Outer-Iter.   Inner-Iter.     Column Row Layer    Max.-Head-Change    Column Row Layer    Max.-Flux-Residual            L2-New               L2-Old           Solver-Max-Delh
         22                 6           0           248  189     1       0.1032568269E+12     248  190    1      -0.4343564732E+14      0.1624578973E+15      0.2320827143E+15      0.2640961423E+15
         23                 6           0           248  189     1       0.7227977762E+11     248  190    1      -0.3040495261E+14      0.1137205261E+15      0.1624578973E+15      0.2640961423E+15
         24                 6           0           248  189     1       0.5059584347E+11     248  190    1      -0.2128346646E+14      0.7960436695E+14      0.1137205261E+15      0.2640961423E+15
         25                 6           0           248  189     1       0.3541708983E+11     248  190    1      -0.1489842627E+14      0.5572305592E+14      0.7960436695E+14      0.2640961423E+15
         26                 6           0           248  189     1       0.2479196246E+11     248  190    1      -0.1042889821E+14      0.3900613848E+14      0.5572305592E+14      0.2640961423E+15
         27                 6           0           248  189     1       0.1735437343E+11     248  190    1      -0.7300228624E+13      0.2730429647E+14      0.3900613848E+14      0.2640961423E+15
         28                 6           0           248  189     1       0.1214806119E+11     248  190    1      -0.5110159950E+13      0.1911300720E+14      0.2730429647E+14      0.2640961423E+15
         29                 6           0           248  189     1       0.8503642689E+10     248  190    1      -0.3577111904E+13      0.1337910481E+14      0.1911300720E+14      0.2640961423E+15
         30                 6           0           248  189     1       0.5952549781E+10     248  190    1      -0.2503978290E+13      0.9365373210E+13      0.1337910481E+14      0.2640961423E+15
         31                 6           0           248  189     1       0.4166784776E+10     248  190    1      -0.1752784773E+13      0.6555761135E+13      0.9365373210E+13      0.2640961423E+15
                                                   Max.-Head-Change                        Max.-Flux-Residual
  Residual-Control   Outer-Iter.   Inner-Iter.     Column Row Layer    Max.-Head-Change    Column Row Layer    Max.-Flux-Residual            L2-New               L2-Old           Solver-Max-Delh
         32                 6           0           248  189     1       0.2916749293E+10     248  190    1      -0.1226949320E+13      0.4589032716E+13      0.6555761135E+13      0.2640961423E+15
         33                 6           0           248  189     1       0.2041724470E+10     248  190    1      -0.8588645096E+12      0.3212322847E+13      0.4589032716E+13      0.2640961423E+15
         34                 6           0           248  189     1       0.1429207105E+10     248  190    1      -0.6012051465E+12      0.2248625954E+13      0.3212322847E+13      0.2640961423E+15
         35                 6           0           248  189     1       0.1000444956E+10     248  190    1      -0.4208435954E+12      0.1574038141E+13      0.2248625954E+13      0.2640961423E+15
         36                 6           0           248  189     1       0.7003114576E+09     248  190    1      -0.2945905117E+12      0.1101826680E+13      0.1574038141E+13      0.2640961423E+15
         37                 6           0           248  189     1       0.4902180120E+09     248  190    1      -0.2062133547E+12      0.7712786627E+12      0.1101826680E+13      0.2640961423E+15
         38                 6           0           248  189     1       0.3431526025E+09     248  190    1      -0.1443493458E+12      0.5398950546E+12      0.7712786627E+12      0.2640961423E+15
         39                 6           0           248  189     1       0.2402068177E+09     248  190    1      -0.1010445404E+12      0.3779265317E+12      0.5398950546E+12      0.2640961423E+15
         40                 6           0           248  189     1       0.1681447695E+09     248  190    1      -0.7073117704E+11      0.2645485675E+12      0.3779265317E+12      0.2640961423E+15
         41                 6           0           248  189     1       0.1177013367E+09     248  190    1      -0.4951182309E+11      0.1851839940E+12      0.2645485675E+12      0.2640961423E+15
                                                   Max.-Head-Change                        Max.-Flux-Residual
  Residual-Control   Outer-Iter.   Inner-Iter.     Column Row Layer    Max.-Head-Change    Column Row Layer    Max.-Flux-Residual            L2-New               L2-Old           Solver-Max-Delh
         42                 6           0           248  189     1       0.8239093426E+08     248  190    1      -0.3465827557E+11      0.1296287935E+12      0.1851839940E+12      0.2640961423E+15
         43                 6           0           248  189     1       0.5767365300E+08     248  190    1      -0.2426079248E+11      0.9074015381E+11      0.1296287935E+12      0.2640961423E+15
         44                 6           0           248  189     1       0.4037155641E+08     248  190    1      -0.1698255445E+11      0.6351810649E+11      0.9074015381E+11      0.2640961423E+15
         45                 6           0           248  189     1       0.2826008901E+08     248  190    1      -0.1188778791E+11      0.4446267369E+11      0.6351810649E+11      0.2640961423E+15
         46                 6           0           248  189     1       0.1978206197E+08     248  190    1      -0.8321451393E+10      0.3112387095E+11      0.4446267369E+11      0.2640961423E+15
         47                 6           0           248  189     1       0.1384744314E+08     248  190    1      -0.5825015874E+10      0.2178670923E+11      0.3112387095E+11      0.2640961423E+15
         48                 6           0           248  189     1       0.9693210034E+07     248  190    1      -0.4077511041E+10      0.1525069616E+11      0.2178670923E+11      0.2640961423E+15
         49                 6           0           248  189     1       0.6785246908E+07     248  190    1      -0.2854257679E+10      0.1067548706E+11      0.1525069616E+11      0.2640961423E+15
         50                 6           0           248  189     1       0.4749672755E+07     248  190    1      -0.1997980339E+10      0.7472840752E+10      0.1067548706E+11      0.2640961423E+15
          0                 7         200            15  399     1       0.2001430221E+15     248  190    1      -0.1398586212E+10      0.5230988408E+10      0.7472840752E+10      0.2001430221E+15
                                                   Max.-Head-Change                        Max.-Flux-Residual
  Residual-Control   Outer-Iter.   Inner-Iter.     Column Row Layer    Max.-Head-Change    Column Row Layer    Max.-Flux-Residual            L2-New               L2-Old           Solver-Max-Delh
          1                 7           0            15  399     1       0.6004290902E+14      89    3    1      -0.1139921944E+11      0.3388578081E+11      0.5230988408E+10      0.2001430221E+15
          2                 7           0            15  399     1       0.1801287342E+14      89    3    1      -0.7979453469E+10      0.2364928303E+11      0.3388578081E+11      0.2001430221E+15
          3                 7           0            15  399     1       0.5403862241E+13      89    3    1      -0.5585617332E+10      0.1655449775E+11      0.2364928303E+11      0.2001430221E+15
          4                 7           0            15  399     1       0.1621158737E+13      89    3    1      -0.3909932064E+10      0.1158814815E+11      0.1655449775E+11      0.2001430221E+15
          5                 7           0            15  399     1       0.4863476404E+12      89    3    1      -0.2736952397E+10      0.8111703491E+10      0.1158814815E+11      0.2001430221E+15
          0                 8         200           247  185     1       0.2088924603E+08      89    3    1      -0.1915866644E+10      0.5678192278E+10      0.8111703491E+10      0.2088924603E+08
          1                 8           0           247  185     1       0.1462247197E+08     247  185    1      -0.1351475029E+11      0.1685027832E+11      0.5678192278E+10      0.2088924603E+08
          2                 8           0           247  185     1       0.1023573021E+08     247  185    1      -0.9460325042E+10      0.1201797300E+11      0.1685027832E+11      0.2088924603E+08
          3                 8           0           247  185     1       0.7165011023E+07     247  185    1      -0.6622227415E+10      0.8911681404E+10      0.1201797300E+11      0.2088924603E+08
          4                 8           0           247  185     1       0.5015507631E+07     247  185    1      -0.4635559110E+10      0.7064024329E+10      0.8911681404E+10      0.2088924603E+08
                                                   Max.-Head-Change                        Max.-Flux-Residual
  Residual-Control   Outer-Iter.   Inner-Iter.     Column Row Layer    Max.-Head-Change    Column Row Layer    Max.-Flux-Residual            L2-New               L2-Old           Solver-Max-Delh
          0                 9         200            88    4     1      -0.8030765695E+07     247  185    1      -0.3244891321E+10      0.6088853164E+10      0.7064024329E+10     -0.8030765695E+07
          1                 9           0            88    4     1      -0.5621535891E+07     247  185    1      -0.1693026017E+10      0.1047226378E+11      0.6088853164E+10     -0.8030765695E+07
          2                 9           0            88    4     1      -0.3935075057E+07     247  185    1      -0.2158585627E+10      0.7886040490E+10      0.1047226378E+11     -0.8030765695E+07
          0                10         134            88    4     1      -0.4794096235E+07     247  185    1      -0.2484477348E+10      0.6485505228E+10      0.7886040490E+10     -0.4794096235E+07
          0                11         177           247  185     1      -0.9689380053E+06     247  185    1      -0.1298969869E+10      0.2361597258E+10      0.6485505228E+10     -0.9689380053E+06
          0                12         126           347  163     1       0.1381855269E+07     247  185    1      -0.6791329567E+09      0.1045299482E+10      0.2361597258E+10      0.1381855269E+07
          0                13         116           247  185     1      -0.2648591048E+06     247  185    1      -0.3550603923E+09      0.5349033407E+09      0.1045299482E+10     -0.2648591048E+06
          0                14         118           367  249     1       0.2087768615E+06     247  185    1      -0.1856270846E+09      0.3577246511E+09      0.5349033407E+09      0.2087768615E+06
          0                15          94           362  243     1       0.1724032199E+06     247  185    1      -0.9704477383E+08      0.1724509398E+09      0.3577246511E+09      0.1724032199E+06
          0                16          93           362  243     1      -0.1072436289E+06     362  243    1      -0.1185700928E+09      0.1608285387E+09      0.1724509398E+09     -0.1072436289E+06
                                                   Max.-Head-Change                        Max.-Flux-Residual
  Residual-Control   Outer-Iter.   Inner-Iter.     Column Row Layer    Max.-Head-Change    Column Row Layer    Max.-Flux-Residual            L2-New               L2-Old           Solver-Max-Delh
          0                17          97           362  243     1      -0.4052977456E+05     362  243    1      -0.4481218693E+08      0.6978497865E+08      0.1608285387E+09     -0.4052977456E+05
          0                18          97           362  243     1      -0.1531316867E+05     362  243    1      -0.1693590767E+08      0.3219837653E+08      0.6978497865E+08     -0.1531316867E+05
          0                19          87           357   78     1       0.2437098630E+05     335  188    1      -0.8509585033E+07      0.1952734174E+08      0.3219837653E+08      0.2437098630E+05
          0                20          90           357   78     1       0.1340247602E+05     247  185    1      -0.3788799111E+07      0.9130119740E+07      0.1952734174E+08      0.1340247602E+05
          0                21          77           357   78     1       0.4326738129E+04     247  185    1      -0.1980535122E+07      0.4364968595E+07      0.9130119740E+07      0.4326738129E+04
          0                22          70           355   79     1       0.5535662381E+04     247  185    1      -0.1035273766E+07      0.2165108027E+07      0.4364968595E+07      0.5535662381E+04
          0                23          76           360   69     1       0.5990042200E+03     347  211    1      -0.5560295796E+06      0.1324545891E+07      0.2165108027E+07      0.5990042200E+03
          0                24          79           374   83     1       0.9555057236E+03     247  185    1      -0.2828626249E+06      0.6241912695E+06      0.1324545891E+07      0.9555057236E+03
          1                24           0           374   83     1       0.6688539951E+03     374   83    1      -0.6640693902E+06      0.8413345839E+06      0.6241912695E+06      0.9555057236E+03
          0                25          93           251  252     1       0.1476588376E+05     374   83    1      -0.4648478468E+06      0.6763155447E+06      0.8413345839E+06      0.1476588376E+05
                                                   Max.-Head-Change                        Max.-Flux-Residual
  Residual-Control   Outer-Iter.   Inner-Iter.     Column Row Layer    Max.-Head-Change    Column Row Layer    Max.-Flux-Residual            L2-New               L2-Old           Solver-Max-Delh
          1                25           0           251  252     1       0.1033611845E+05     251  252    1      -0.8524191377E+07      0.1342930503E+08      0.6763155447E+06      0.1476588376E+05
          2                25           0           251  252     1       0.7235282794E+04     251  252    1      -0.5966933148E+07      0.9408841622E+07      0.1342930503E+08      0.1476588376E+05
          3                25           0           251  252     1       0.5064697869E+04     251  252    1      -0.4176852419E+07      0.6600626103E+07      0.9408841622E+07      0.1476588376E+05
          4                25           0           251  252     1       0.3545288448E+04     251  252    1      -0.2923795929E+07      0.4639706178E+07      0.6600626103E+07      0.1476588376E+05
          5                25           0           251  252     1       0.2481701872E+04     251  252    1      -0.2046656402E+07      0.3277752322E+07      0.4639706178E+07      0.1476588376E+05
          6                25           0           251  252     1       0.1737191280E+04     251  252    1      -0.1432658743E+07      0.2338748494E+07      0.3277752322E+07      0.1476588376E+05
          7                25           0           251  252     1       0.1216033876E+04     251  252    1      -0.1002860389E+07      0.1700587097E+07      0.2338748494E+07      0.1476588376E+05
          8                25           0           251  252     1       0.8512236984E+03     251  252    1      -0.7020015465E+06      0.1277585369E+07      0.1700587097E+07      0.1476588376E+05
          9                25           0           251  252     1       0.5958565788E+03     251  252    1      -0.4914003603E+06      0.1009139701E+07      0.1277585369E+07      0.1476588376E+05
         10                25           0           251  252     1       0.4170995980E+03     374   83    1      -0.4558954911E+06      0.8499893219E+06      0.1009139701E+07      0.1476588376E+05
                                                   Max.-Head-Change                        Max.-Flux-Residual
  Residual-Control   Outer-Iter.   Inner-Iter.     Column Row Layer    Max.-Head-Change    Column Row Layer    Max.-Flux-Residual            L2-New               L2-Old           Solver-Max-Delh
         11                25           0           251  252     1       0.2919697136E+03     374   83    1      -0.4585811979E+06      0.7617678525E+06      0.8499893219E+06      0.1476588376E+05
          0                26          95           385   77     1       0.4095865217E+04     374   83    1      -0.4604611926E+06      0.7144798593E+06      0.7617678525E+06      0.4095865217E+04
          0                27          86           365   71     1       0.2960759515E+04     374   83    1      -0.2407068497E+06      0.4477344954E+06      0.7144798593E+06      0.2960759515E+04
          0                28          53           387   67     1       0.1028758037E+05     394   62    1      -0.2263787468E+06      0.3666953495E+06      0.4477344954E+06      0.1028758037E+05
          1                28           0           387   67     1       0.7201306136E+04     387   67    1      -0.7135704829E+07      0.1033995812E+08      0.3666953495E+06      0.1028758037E+05
          2                28           0           387   67     1       0.5040914209E+04     387   67    1      -0.4994986680E+07      0.7241650269E+07      0.1033995812E+08      0.1028758037E+05
          3                28           0           387   67     1       0.3528639887E+04     387   67    1      -0.3496484001E+07      0.5075881210E+07      0.7241650269E+07      0.1028758037E+05
          4                28           0           387   67     1       0.2470047879E+04     387   67    1      -0.2447532143E+07      0.3561725829E+07      0.5075881210E+07      0.1028758037E+05
          5                28           0           387   67     1       0.1729033486E+04     387   67    1      -0.1713265856E+07      0.2505631163E+07      0.3561725829E+07      0.1028758037E+05
          6                28           0           387   67     1       0.1210323419E+04     387   67    1      -0.1199279463E+07      0.1771794328E+07      0.2505631163E+07      0.1028758037E+05
                                                   Max.-Head-Change                        Max.-Flux-Residual
  Residual-Control   Outer-Iter.   Inner-Iter.     Column Row Layer    Max.-Head-Change    Column Row Layer    Max.-Flux-Residual            L2-New               L2-Old           Solver-Max-Delh
          7                28           0           387   67     1       0.8472263790E+03     387   67    1      -0.8394889942E+06      0.1266324127E+07      0.1771794328E+07      0.1028758037E+05
          8                28           0           387   67     1       0.5930584552E+03     387   67    1      -0.5876356704E+06      0.9210824833E+06      0.1266324127E+07      0.1028758037E+05
          9                28           0           387   67     1       0.4151409116E+03     387   67    1      -0.4113383467E+06      0.6894548402E+06      0.9210824833E+06      0.1028758037E+05
         10                28           0           387   67     1       0.2905986332E+03     387   67    1      -0.2879302223E+06      0.5380298467E+06      0.6894548402E+06      0.1028758037E+05
         11                28           0           387   67     1       0.2034190398E+03     394   62    1      -0.2240563765E+06      0.4433091714E+06      0.5380298467E+06      0.1028758037E+05
          0                29         106           200  137     1       0.7760592255E+03     394   62    1      -0.2247530876E+06      0.4011858610E+06      0.4433091714E+06      0.7760592255E+03
          1                29           0           200  137     1       0.5432414486E+03     200  137    1      -0.4455426436E+06      0.6976042825E+06      0.4011858610E+06      0.7760592255E+03
          2                29           0           200  137     1       0.3802690076E+03     200  137    1      -0.3118583635E+06      0.5062419232E+06      0.6976042825E+06      0.7760592255E+03
          0                30          70           341  118     1       0.1203167956E+04     200  137    1      -0.2182793690E+06      0.4149958333E+06      0.5062419232E+06      0.1203167956E+04
          1                30           0           384   66     1       0.6606131509E+03     386   64    1      -0.4986858776E+06      0.1046576218E+07      0.4149958333E+06      0.1203167956E+04
                                                   Max.-Head-Change                        Max.-Flux-Residual
  Residual-Control   Outer-Iter.   Inner-Iter.     Column Row Layer    Max.-Head-Change    Column Row Layer    Max.-Flux-Residual            L2-New               L2-Old           Solver-Max-Delh
          2                30           0           384   66     1       0.4624291978E+03     386   64    1      -0.3490781639E+06      0.7703445126E+06      0.1046576218E+07      0.1203167956E+04
          3                30           0           384   66     1       0.3237004329E+03     386   64    1      -0.2443527661E+06      0.5977397975E+06      0.7703445126E+06      0.1203167956E+04
          4                30           0           384   66     1       0.2265902992E+03     200  137    1      -0.1903790090E+06      0.4988877468E+06      0.5977397975E+06      0.1203167956E+04
          0                31          75           200  213     1       0.3794230591E+03     200  137    1      -0.1987491173E+06      0.4456156545E+06      0.4988877468E+06      0.3794230591E+03
          1                31           0           200  213     1       0.2655961369E+03     200  213    1      -0.2407573936E+06      0.5694969436E+06      0.4456156545E+06      0.3794230591E+03
          0                32          40           205  122     1       0.4588380971E+03     200  213    1      -0.1685297349E+06      0.4638359242E+06      0.5694969436E+06      0.4588380971E+03
          0                33          81           205  122     1       0.8080850597E+03     200  213    1      -0.1269668872E+06      0.2967051921E+06      0.4638359242E+06      0.8080850597E+03
          0                34          80           347  100     1       0.7952737176E+03     200  213    1      -0.9059596838E+05      0.1984064496E+06      0.2967051921E+06      0.7952737176E+03
          0                35          76           369  242     1       0.3410109473E+04     338  160    1      -0.1244602613E+06      0.2131345295E+06      0.1984064496E+06      0.3410109473E+04
          0                36          82           205  123     1       0.2044661352E+05     200  213    1      -0.5371601231E+05      0.1313965718E+06      0.2131345295E+06      0.2044661352E+05
                                                   Max.-Head-Change                        Max.-Flux-Residual
  Residual-Control   Outer-Iter.   Inner-Iter.     Column Row Layer    Max.-Head-Change    Column Row Layer    Max.-Flux-Residual            L2-New               L2-Old           Solver-Max-Delh
          0                37          97           205  123     1       0.1854160867E+05     200  213    1      -0.4138818502E+05      0.9450177411E+05      0.1313965718E+06      0.1854160867E+05
          0                38         112           207  122     1       0.1503320040E+05     200  213    1      -0.3191495123E+05      0.7494768810E+05      0.9450177411E+05      0.1503320040E+05
          1                38           0           207  122     1       0.4509960298E+04     362  250    1      -0.2426731422E+06      0.6899253767E+06      0.7494768810E+05      0.1503320040E+05
          2                38           0           207  122     1       0.1352988143E+04     362  250    1      -0.1698310887E+06      0.4732241652E+06      0.6899253767E+06      0.1503320040E+05
          3                38           0           207  122     1       0.4058964591E+03     362  250    1      -0.1188416523E+06      0.3114447869E+06      0.4732241652E+06      0.1503320040E+05
          4                38           0           207  122     1       0.1217689426E+03     363  251    1      -0.6590976722E+05      0.1734385347E+06      0.3114447869E+06      0.1503320040E+05
          5                38           0           363  251     1       0.6963085067E+02     363  251    1      -0.3227218183E+05      0.1047860676E+06      0.1734385347E+06      0.1503320040E+05
          0                39         114           308  193     1       0.3459990992E+04     200  213    1      -0.3061324464E+05      0.8090239568E+05      0.1047860676E+06      0.3459990992E+04
          1                39           0           308  193     1       0.1037997339E+04     198  211    1      -0.1152041664E+06      0.3324005664E+06      0.8090239568E+05      0.3459990992E+04
          2                39           0           308  193     1       0.3113992140E+03     198  211    1      -0.7078177089E+05      0.1832534461E+06      0.3324005664E+06      0.3459990992E+04
                                                   Max.-Head-Change                        Max.-Flux-Residual
  Residual-Control   Outer-Iter.   Inner-Iter.     Column Row Layer    Max.-Head-Change    Column Row Layer    Max.-Flux-Residual            L2-New               L2-Old           Solver-Max-Delh
          3                39           0           308  193     1       0.9341976792E+02     198  211    1      -0.3468197043E+05      0.1085646080E+06      0.1832534461E+06      0.3459990992E+04
          0                40          99           206  187     1       0.5529757613E+05     200  213    1      -0.2773731805E+05      0.8311115716E+05      0.1085646080E+06      0.5529757613E+05
          0                41         106           206  187     1       0.5063327924E+05     200  213    1      -0.2147015750E+05      0.5962133532E+05      0.8311115716E+05      0.5063327924E+05
          0                42          70           207  187     1       0.1822779715E+06     200  213    1      -0.1661718956E+05      0.4302816458E+05      0.5962133532E+05      0.1822779715E+06
          1                42           0           207  187     1       0.5468339364E+05     339  168    1      -0.1018007902E+06      0.1185756322E+06      0.4302816458E+05      0.1822779715E+06
          2                42           0           207  187     1       0.1640501874E+05     339  168    1      -0.4988127549E+05      0.6586373749E+05      0.1185756322E+06      0.1822779715E+06
          0                43          49           209  145     1       0.4324001071E+04     339  168    1      -0.2444100145E+05      0.4609692183E+05      0.6586373749E+05      0.4324001071E+04
          1                43           0           209  145     1       0.1297200373E+04     345  165    1      -0.2301093734E+05      0.6337095644E+05      0.4609692183E+05      0.4324001071E+04
          0                44          42           348  215     1       0.1157367465E+03     339  168    1      -0.1962247210E+05      0.4551610667E+05      0.6337095644E+05      0.1157367465E+03
          0                45          49           353  218     1       0.3549647836E+04     339  168    1      -0.1416816151E+05      0.3265168826E+05      0.4551610667E+05      0.3549647836E+04
                                                   Max.-Head-Change                        Max.-Flux-Residual
  Residual-Control   Outer-Iter.   Inner-Iter.     Column Row Layer    Max.-Head-Change    Column Row Layer    Max.-Flux-Residual            L2-New               L2-Old           Solver-Max-Delh
          1                45           0           353  218     1       0.1064894394E+04     384  257    1      -0.3266574318E+06      0.5595552145E+06      0.3265168826E+05      0.3549647836E+04
          2                45           0           353  218     1       0.3194683308E+03     384  257    1      -0.2286335386E+06      0.3859367753E+06      0.5595552145E+06      0.3549647836E+04
          3                45           0           384  257     1       0.1681258034E+03     384  257    1      -0.1600168144E+06      0.2634285828E+06      0.3859367753E+06      0.3549647836E+04
          4                45           0           384  257     1       0.1176880604E+03     384  257    1      -0.1070567410E+06      0.1549845700E+06      0.2634285828E+06      0.3549647836E+04
          5                45           0           384  257     1       0.8238164088E+02     384  257    1      -0.5243878521E+05      0.8048065011E+05      0.1549845700E+06      0.3549647836E+04
          6                45           0           384  257     1       0.5766714763E+02     384  257    1      -0.2568169330E+05      0.4791537849E+05      0.8048065011E+05      0.3549647836E+04
          7                45           0           384  257     1       0.4036700266E+02     339  168    1      -0.1367877732E+05      0.3624011194E+05      0.4791537849E+05      0.3549647836E+04
          0                46          47           193  154     1       0.9571659953E+03     339  168    1      -0.1382608834E+05      0.3305158835E+05      0.3624011194E+05      0.9571659953E+03
          1                46           0           193  154     1       0.2871498100E+03     295  215    1      -0.9888896196E+05      0.1926897950E+06      0.3305158835E+05      0.9571659953E+03
          2                46           0           295  215     1       0.9247669789E+02     295  215    1      -0.5584002936E+05      0.1027536811E+06      0.1926897950E+06      0.9571659953E+03
                                                   Max.-Head-Change                        Max.-Flux-Residual
  Residual-Control   Outer-Iter.   Inner-Iter.     Column Row Layer    Max.-Head-Change    Column Row Layer    Max.-Flux-Residual            L2-New               L2-Old           Solver-Max-Delh
          3                46           0           295  215     1       0.6473368742E+02     295  215    1      -0.2735951590E+05      0.5626948143E+05      0.1027536811E+06      0.9571659953E+03
          4                46           0           295  215     1       0.4531358042E+02     295  215    1      -0.1340437363E+05      0.3805232245E+05      0.5626948143E+05      0.9571659953E+03
          0                47          34           391  264     1       0.1414640312E+03     339  168    1      -0.1285746186E+05      0.3281601826E+05      0.3805232245E+05      0.1414640312E+03
          1                47           0           195  140     1       0.8687264365E+02     195  140    1      -0.6002276224E+05      0.7102890393E+05      0.3281601826E+05      0.1414640312E+03
          2                47           0           195  140     1       0.6081084952E+02     195  140    1      -0.2941031457E+05      0.4191467337E+05      0.7102890393E+05      0.1414640312E+03
          0                48          49           338  204     1       0.1952301654E+03     195  140    1      -0.1441046710E+05      0.3226746979E+05      0.4191467337E+05      0.1952301654E+03
          0                49          48           343  175     1       0.9150813563E+03     195  140    1      -0.1155679067E+05      0.2402136464E+05      0.3226746979E+05      0.9150813563E+03
          1                49           0           343  175     1       0.6405569385E+03     343  175    1      -0.6192963495E+06      0.6932003856E+06      0.2402136464E+05      0.9150813563E+03
          2                49           0           343  175     1       0.4483898493E+03     343  175    1      -0.4335072970E+06      0.4851360024E+06      0.6932003856E+06      0.9150813563E+03
          3                49           0           343  175     1       0.3138728892E+03     343  175    1      -0.3034549626E+06      0.3398796172E+06      0.4851360024E+06      0.9150813563E+03
                                                   Max.-Head-Change                        Max.-Flux-Residual
  Residual-Control   Outer-Iter.   Inner-Iter.     Column Row Layer    Max.-Head-Change    Column Row Layer    Max.-Flux-Residual            L2-New               L2-Old           Solver-Max-Delh
          4                49           0           343  175     1       0.2197110187E+03     343  175    1      -0.2124183301E+06      0.2384552831E+06      0.3398796172E+06      0.9150813563E+03
          5                49           0           343  175     1       0.1537977105E+03     343  175    1      -0.1486926884E+06      0.1677354196E+06      0.2384552831E+06      0.9150813563E+03
          6                49           0           343  175     1       0.1076583955E+03     343  175    1      -0.9219381631E+05      0.1055878042E+06      0.1677354196E+06      0.9150813563E+03
          7                49           0           343  175     1       0.7536087556E+02     343  175    1      -0.4517378862E+05      0.5560236428E+05      0.1055878042E+06      0.9150813563E+03
          8                49           0           343  175     1       0.5275261199E+02     343  175    1      -0.2213432979E+05      0.3412296353E+05      0.5560236428E+05      0.9150813563E+03
          9                49           0           343  175     1       0.3692682777E+02     195  140    1      -0.1142492869E+05      0.2658491950E+05      0.3412296353E+05      0.9150813563E+03
          0                50          48           214  130     1       0.7286770465E+03     195  140    1      -0.1146571889E+05      0.2450464833E+05      0.2658491950E+05      0.7286770465E+03
          1                50           0           214  130     1       0.2186031227E+03     195  210    1      -0.2980491282E+05      0.4682789317E+05      0.2450464833E+05      0.7286770465E+03
          2                50           0           214  130     1       0.6558093940E+02     195  210    1      -0.1460389762E+05      0.2908141665E+05      0.4682789317E+05      0.7286770465E+03
          0                51          28           201  157     1       0.5274670510E+03     195  140    1      -0.1034160632E+05      0.2365851097E+05      0.2908141665E+05      0.5274670510E+03
                                                   Max.-Head-Change                        Max.-Flux-Residual
  Residual-Control   Outer-Iter.   Inner-Iter.     Column Row Layer    Max.-Head-Change    Column Row Layer    Max.-Flux-Residual            L2-New               L2-Old           Solver-Max-Delh
          0                52          36           399   64     1       0.8887861218E+03     195  140    1      -0.8328065798E+04      0.1802010398E+05      0.2365851097E+05      0.8887861218E+03
          0                53          47           193  162     1       0.5077932139E+04     195  140    1      -0.6705065470E+04      0.1386879612E+05      0.1802010398E+05      0.5077932139E+04
          1                53           0           193  162     1       0.1523379702E+04     348   96    1      -0.1434076938E+06      0.2644365543E+06      0.1386879612E+05      0.5077932139E+04
          2                53           0           193  162     1       0.4570139289E+03     348   96    1      -0.1003855083E+06      0.1609454380E+06      0.2644365543E+06      0.5077932139E+04
          3                53           0           193  162     1       0.1371041841E+03     348   96    1      -0.4942229206E+05      0.7979699972E+05      0.1609454380E+06      0.5077932139E+04
          4                53           0           348   96     1       0.5899286819E+02     348   96    1      -0.2421624559E+05      0.4068742953E+05      0.7979699972E+05      0.5077932139E+04
          5                53           0           348   96     1       0.4129500703E+02     348   96    1      -0.1186548624E+05      0.2301629811E+05      0.4068742953E+05      0.5077932139E+04
          6                53           0           348   96     1       0.2890650443E+02     195  140    1      -0.6475377705E+04      0.1623311887E+05      0.2301629811E+05      0.5077932139E+04
          0                54          43           200  182     1       0.9908107750E+03     195  140    1      -0.6543863732E+04      0.1422980560E+05      0.1623311887E+05      0.9908107750E+03
          1                54           0           200  182     1       0.2972432443E+03     195  132    1      -0.8267109576E+05      0.1119118632E+06      0.1422980560E+05      0.9908107750E+03
                                                   Max.-Head-Change                        Max.-Flux-Residual
  Residual-Control   Outer-Iter.   Inner-Iter.     Column Row Layer    Max.-Head-Change    Column Row Layer    Max.-Flux-Residual            L2-New               L2-Old           Solver-Max-Delh
          2                54           0           200  182     1       0.8917297683E+02     195  132    1      -0.4050789665E+05      0.5583178960E+05      0.1119118632E+06      0.9908107750E+03
          3                54           0           195  132     1       0.5100228198E+02     195  132    1      -0.1984821145E+05      0.2952296294E+05      0.5583178960E+05      0.9908107750E+03
          4                54           0           195  132     1       0.3570159678E+02     195  132    1      -0.9725163221E+04      0.1847726285E+05      0.2952296294E+05      0.9908107750E+03
          0                55          62           211  225     1       0.4529782879E+03     195  140    1      -0.6222988800E+04      0.1484732947E+05      0.1847726285E+05      0.4529782879E+03
          0                56          34           195  180     1       0.7644213660E+03     195  140    1      -0.4995880766E+04      0.1255537876E+05      0.1484732947E+05      0.7644213660E+03
          1                56           0           195  180     1       0.2293264189E+03     392   65    1      -0.1800473196E+06      0.2041232016E+06      0.1255537876E+05      0.7644213660E+03
          2                56           0           392   65     1       0.1276173701E+03     392   65    1      -0.1260205949E+06      0.1421763765E+06      0.2041232016E+06      0.7644213660E+03
          3                56           0           392   65     1       0.8933215753E+02     392   65    1      -0.6460040619E+05      0.7349086017E+05      0.1421763765E+06      0.7644213660E+03
          4                56           0           392   65     1       0.6253250921E+02     392   65    1      -0.3164676555E+05      0.3741618774E+05      0.7349086017E+05      0.7644213660E+03
          5                56           0           392   65     1       0.4377275570E+02     392   65    1      -0.1550169533E+05      0.2108104127E+05      0.3741618774E+05      0.7644213660E+03
                                                   Max.-Head-Change                        Max.-Flux-Residual
  Residual-Control   Outer-Iter.   Inner-Iter.     Column Row Layer    Max.-Head-Change    Column Row Layer    Max.-Flux-Residual            L2-New               L2-Old           Solver-Max-Delh
          6                56           0           392   65     1       0.3064092847E+02     392   65    1      -0.7592177297E+04      0.1478074350E+05      0.2108104127E+05      0.7644213660E+03
          0                57          34           198  151     1       0.3930877156E+03     195  140    1      -0.4874599831E+04      0.1290977970E+05      0.1478074350E+05      0.3930877156E+03
          1                57           0           198  151     1       0.1179263194E+03     196  129    1      -0.1597629412E+05      0.3344794784E+05      0.1290977970E+05      0.3930877156E+03
          2                57           0           400   66     1       0.3809396946E+02     196  129    1      -0.7825760643E+04      0.1894335013E+05      0.3344794784E+05      0.3930877156E+03
          0                58          44           202  173     1       0.7110863378E+03     195  140    1      -0.4387617184E+04      0.1366956036E+05      0.1894335013E+05      0.7110863378E+03
          1                58           0           207  167     1       0.2837073304E+03     207  167    1      -0.2559942782E+06      0.2852572421E+06      0.1366956036E+05      0.7110863378E+03
          2                58           0           207  167     1       0.1985951279E+03     207  167    1      -0.1791718434E+06      0.2000849364E+06      0.2852572421E+06      0.7110863378E+03
          3                58           0           207  167     1       0.1390165872E+03     207  167    1      -0.1253961399E+06      0.1404490066E+06      0.2000849364E+06      0.7110863378E+03
          4                58           0           207  167     1       0.9731160937E+02     207  167    1      -0.7448536616E+05      0.8408834504E+05      0.1404490066E+06      0.7110863378E+03
          5                58           0           207  167     1       0.6811812540E+02     207  167    1      -0.3648255899E+05      0.4270888766E+05      0.8408834504E+05      0.7110863378E+03
                                                   Max.-Head-Change                        Max.-Flux-Residual
  Residual-Control   Outer-Iter.   Inner-Iter.     Column Row Layer    Max.-Head-Change    Column Row Layer    Max.-Flux-Residual            L2-New               L2-Old           Solver-Max-Delh
          6                58           0           207  167     1       0.4768268697E+02     207  167    1      -0.1786576548E+05      0.2386194960E+05      0.4270888766E+05      0.7110863378E+03
          7                58           0           207  167     1       0.3337788031E+02     207  167    1      -0.8746743930E+04      0.1647598888E+05      0.2386194960E+05      0.7110863378E+03
          0                59          32           362  227     1       0.8140859478E+02     195  140    1      -0.4312416888E+04      0.1421826391E+05      0.1647598888E+05      0.8140859478E+02
          1                59           0           203  197     1       0.3748867707E+02     203  197    1      -0.1145434414E+05      0.1773928062E+05      0.1421826391E+05      0.8140859478E+02
          0                60          41           213  191     1       0.1810047855E+03     203  197    1      -0.5611593221E+04      0.1373134602E+05      0.1773928062E+05      0.1810047855E+03
          0                61          37           386  260     1       0.7345720012E+03     203  197    1      -0.4323945173E+04      0.1240046618E+05      0.1373134602E+05      0.7345720012E+03
          0                62          36           213  189     1       0.3425776102E+04     281  227    1      -0.4976255030E+04      0.1110720581E+05      0.1240046618E+05      0.3425776102E+04
          1                62           0           213  189     1       0.1027732871E+04     201  219    1      -0.3544536994E+05      0.6699319517E+05      0.1110720581E+05      0.3425776102E+04
          2                62           0           213  189     1       0.3083198737E+03     201  219    1      -0.1736693021E+05      0.3384046635E+05      0.6699319517E+05      0.3425776102E+04
          3                62           0           213  189     1       0.9249596577E+02     201  219    1      -0.8508885226E+04      0.1870303326E+05      0.3384046635E+05      0.3425776102E+04
                                                   Max.-Head-Change                        Max.-Flux-Residual
[...]
          0               444           4           311  196     1       0.1717208082E-01     315  185    1      -0.2156222966E-01      0.6768217481E-01      0.7606248198E-01      0.1717208082E-01
          0               445           4           314  184     1       0.7228039332E+01     315  185    1      -0.1894451317E-01      0.6030681995E-01      0.6768217481E-01      0.7228039332E+01
          1               445           0           314  184     1       0.5059627446E+01     314  184    1      -0.2081437578E+03      0.2327130041E+03      0.6030681995E-01      0.7228039332E+01
          2               445           0           314  184     1       0.3541739152E+01     314  184    1      -0.1018031725E+03      0.1138206541E+03      0.2327130041E+03      0.7228039332E+01
          3               445           0           314  184     1       0.2479217364E+01     314  184    1      -0.4975255525E+02      0.5562632776E+02      0.1138206541E+03      0.7228039332E+01
          4               445           0           314  184     1       0.1735452125E+01     314  184    1      -0.2428716663E+02      0.2715519502E+02      0.5562632776E+02      0.7228039332E+01
          5               445           0           314  184     1       0.1214816467E+01     314  184    1      -0.1183671569E+02      0.1323522802E+02      0.2715519502E+02      0.7228039332E+01
          6               445           0           314  184     1       0.8503715125E+00     314  184    1      -0.5755307276E+01      0.6436126979E+01      0.1323522802E+02      0.7228039332E+01
          7               445           0           314  184     1       0.5952600486E+00     314  184    1      -0.2788935894E+01      0.3119879904E+01      0.6436126979E+01      0.7228039332E+01
          8               445           0           314  184     1       0.4166820269E+00     314  184    1      -0.1344877014E+01      0.1505929531E+01      0.3119879904E+01      0.7228039332E+01
                                                   Max.-Head-Change                        Max.-Flux-Residual
  Residual-Control   Outer-Iter.   Inner-Iter.     Column Row Layer    Max.-Head-Change    Column Row Layer    Max.-Flux-Residual            L2-New               L2-Old           Solver-Max-Delh
          9               445           0           314  184     1       0.2916774139E+00     314  184    1      -0.6439123192E+00      0.7234325711E+00      0.1505929531E+01      0.7228039332E+01
         10               445           0           314  184     1       0.2041741862E+00     314  184    1      -0.3050765235E+00      0.3472035652E+00      0.7234325711E+00      0.7228039332E+01
         11               445           0           314  184     1       0.1429219279E+00     314  184    1      -0.1422928142E+00      0.1706938879E+00      0.3472035652E+00      0.7228039332E+01
         12               445           0           314  184     1       0.1000453478E+00     314  184    1      -0.6480087685E-01      0.9443122372E-01      0.1706938879E+00      0.7228039332E+01
         13               445           0           314  184     1       0.7003174230E-01     314  184    1      -0.2842028299E-01      0.6797312077E-01      0.9443122372E-01      0.7228039332E+01
          0               446           4           315  185     1      -0.4812256869E-02     315  185    1      -0.1892142064E-01      0.6138459650E-01      0.6797312077E-01     -0.4812256869E-02
          0               447           3           315  185     1      -0.4531275369E-02     315  185    1      -0.1655869300E-01      0.5454530559E-01      0.6138459650E-01     -0.4531275369E-02
          0               448           9           315  185     1      -0.4201207328E-02     315  185    1      -0.1447660945E-01      0.4856601425E-01      0.5454530559E-01     -0.4201207328E-02
          0               449           7           315  185     1      -0.3991389367E-02     322  194    1      -0.1282604178E-01      0.4330399917E-01      0.4856601425E-01     -0.3991389367E-02
          0               450           6           315  185     1      -0.3751817574E-02     322  194    1      -0.1154699153E-01      0.3867601421E-01      0.4330399917E-01     -0.3751817574E-02
                                                   Max.-Head-Change                        Max.-Flux-Residual
  Residual-Control   Outer-Iter.   Inner-Iter.     Column Row Layer    Max.-Head-Change    Column Row Layer    Max.-Flux-Residual            L2-New               L2-Old           Solver-Max-Delh
          0               451           6           312  185     1       0.8987633869E-02     322  194    1      -0.1039461105E-01      0.3455482166E-01      0.3867601421E-01      0.8987633869E-02
          0               452           6           315  185     1      -0.3321014172E-02     322  194    1      -0.9356430871E-02      0.3086498600E-01      0.3455482166E-01     -0.3321014172E-02
          0               453           6           315  185     1      -0.3112045401E-02     322  194    1      -0.8421206609E-02      0.2759251287E-01      0.3086498600E-01     -0.3112045401E-02
          0               454           6           315  185     1      -0.2912580083E-02     322  194    1      -0.7578798338E-02      0.2467436571E-01      0.2759251287E-01     -0.2912580083E-02
          0               455           5           313  183     1       0.1020618382E-01     322  194    1      -0.6820061435E-02      0.2210622982E-01      0.2467436571E-01      0.1020618382E-01
          0               456           5           306  188     1       0.1532438938E-01     322  194    1      -0.6136748398E-02      0.1982269800E-01      0.2210622982E-01      0.1532438938E-01
          0               457           5           315  185     1      -0.2457353029E-02     322  194    1      -0.5521420524E-02      0.1776725941E-01      0.1982269800E-01     -0.2457353029E-02
          0               458          10           315  185     1      -0.2279597719E-02     322  194    1      -0.4967368553E-02      0.1594287403E-01      0.1776725941E-01     -0.2279597719E-02
          0               459           5           315  185     1      -0.2113165453E-02     322  194    1      -0.4468541160E-02      0.1430589355E-01      0.1594287403E-01     -0.2113165453E-02
          0               460           6           315  185     1      -0.1956678683E-02     322  194    1      -0.4019479882E-02      0.1283791656E-01      0.1430589355E-01     -0.1956678683E-02
                                                   Max.-Head-Change                        Max.-Flux-Residual
  Residual-Control   Outer-Iter.   Inner-Iter.     Column Row Layer    Max.-Head-Change    Column Row Layer    Max.-Flux-Residual            L2-New               L2-Old           Solver-Max-Delh
          0               461           5           315  185     1      -0.1809935716E-02     322  194    1      -0.3615261145E-02      0.1152194635E-01      0.1283791656E-01     -0.1809935716E-02
          0               462           4           311  184     1       0.1756733806E-02     322  194    1      -0.3251444742E-02      0.1034269752E-01      0.1152194635E-01      0.1756733806E-02
          0               463           8           315  185     1      -0.1545118903E-02     322  194    1      -0.2924025805E-02      0.9283995734E-02      0.1034269752E-01     -0.1545118903E-02
          0               464           8           315  185     1      -0.1425581381E-02     322  194    1      -0.2629392506E-02      0.8333911540E-02      0.9283995734E-02     -0.1425581381E-02
          0               465           8           315  185     1      -0.1313384315E-02     322  194    1      -0.2364287909E-02      0.7481788993E-02      0.8333911540E-02     -0.1313384315E-02
          0               466          10           315  185     1      -0.1208048942E-02     322  194    1      -0.2125775388E-02      0.6717127799E-02      0.7481788993E-02     -0.1208048942E-02
          0               467          10           315  185     1      -0.1109562335E-02     322  194    1      -0.1911232155E-02      0.6030879404E-02      0.6717127799E-02     -0.1109562335E-02
          0               468           9           315  185     1      -0.1017693260E-02     322  194    1      -0.1722005816E-02      0.5416357070E-02      0.6030879404E-02     -0.1017693260E-02
          0               469           4           315  185     1      -0.9322043047E-03     322  194    1      -0.1551427924E-02      0.4864746291E-02      0.5416357070E-02     -0.9322043047E-03
          0               470           4           315  185     1      -0.8529014977E-03     322  194    1      -0.1397665747E-02      0.4370299605E-02      0.4864746291E-02     -0.8529014977E-03
                                                   Max.-Head-Change                        Max.-Flux-Residual
  Residual-Control   Outer-Iter.   Inner-Iter.     Column Row Layer    Max.-Head-Change    Column Row Layer    Max.-Flux-Residual            L2-New               L2-Old           Solver-Max-Delh
          0               471           4           315  185     1      -0.7795581818E-03     322  194    1      -0.1259066390E-02      0.3926179584E-02      0.4370299605E-02     -0.7795581818E-03
          0               472           4           315  185     1      -0.7115525135E-03     322  194    1      -0.1134139186E-02      0.3527095657E-02      0.3926179584E-02     -0.7115525135E-03
          0               473           4           315  185     1      -0.6541660414E-03     322  194    1      -0.1021539807E-02      0.3168624120E-02      0.3527095657E-02     -0.6541660414E-03
          0               474           4           315  185     1      -0.6187273565E-03     322  194    1      -0.9200559265E-03      0.2847238436E-02      0.3168624120E-02     -0.6187273565E-03
          0               475           2           315  185     1      -0.5846395148E-03     322  194    1      -0.8285942785E-03      0.2558322506E-02      0.2847238436E-02     -0.5846395148E-03
          0               476           2           315  185     1      -0.5516100482E-03     322  194    1      -0.7461689830E-03      0.2298761450E-02      0.2558322506E-02     -0.5516100482E-03
          0               477           2           315  185     1      -0.5199937925E-03     322  194    1      -0.6718910120E-03      0.2065241788E-02      0.2298761450E-02     -0.5199937925E-03
          0               478           2           315  185     1      -0.4898479708E-03     322  194    1      -0.6049586798E-03      0.1855355134E-02      0.2065241788E-02     -0.4898479708E-03
          0               479           2           315  185     1      -0.4607691637E-03     322  194    1      -0.5446490673E-03      0.1666711899E-02      0.1855355134E-02     -0.4607691637E-03
          0               480           2           315  185     1      -0.4329922597E-03     322  194    1      -0.4903102846E-03      0.1497143172E-02      0.1666711899E-02     -0.4329922597E-03
                                                   Max.-Head-Change                        Max.-Flux-Residual
  Residual-Control   Outer-Iter.   Inner-Iter.     Column Row Layer    Max.-Head-Change    Column Row Layer    Max.-Flux-Residual            L2-New               L2-Old           Solver-Max-Delh
          0               481           2           315  185     1      -0.4063349672E-03     322  194    1      -0.4413544893E-03      0.1344749073E-02      0.1497143172E-02     -0.4063349672E-03
          0               482           2           315  185     1      -0.3807833986E-03     322  194    1      -0.3972515903E-03      0.1207796308E-02      0.1344749073E-02     -0.3807833986E-03
          0               483           2           315  185     1      -0.3565194712E-03     322  194    1      -0.3575235076E-03      0.1084727088E-02      0.1207796308E-02     -0.3565194712E-03
          0               484           2           315  185     1      -0.3333710996E-03     322  194    1      -0.3217391855E-03      0.9741908417E-03      0.1084727088E-02     -0.3333710996E-03
          0               485           2           315  185     1      -0.3109321442E-03     322  194    1      -0.2895099017E-03      0.8748185252E-03      0.9741908417E-03     -0.3109321442E-03
          0               486           2           315  185     1      -0.2895609124E-03     322  194    1      -0.2604850974E-03      0.7855354025E-03      0.8748185252E-03     -0.2895609124E-03
          0               487           2           315  185     1      -0.2692422105E-03     322  194    1      -0.2343486240E-03      0.7053223581E-03      0.7855354025E-03     -0.2692422105E-03
          0               488           3           315  185     1      -0.2499550763E-03     322  194    1      -0.2108153608E-03      0.6332633006E-03      0.7053223581E-03     -0.2499550763E-03
          0               489           4           315  185     1      -0.2316798371E-03     322  194    1      -0.1896281682E-03      0.5685334188E-03      0.6332633006E-03     -0.2316798371E-03
          0               490           4           315  185     1      -0.2143990131E-03     322  194    1      -0.1705551366E-03      0.5103950300E-03      0.5685334188E-03     -0.2143990131E-03
                                                   Max.-Head-Change                        Max.-Flux-Residual
  Residual-Control   Outer-Iter.   Inner-Iter.     Column Row Layer    Max.-Head-Change    Column Row Layer    Max.-Flux-Residual            L2-New               L2-Old           Solver-Max-Delh
          0               491           4           315  185     1      -0.1980915887E-03     322  194    1      -0.1533871157E-03      0.4581798750E-03      0.5103950300E-03     -0.1980915887E-03
          0               492           4           315  185     1      -0.1827355210E-03     322  194    1      -0.1379354823E-03      0.4112875309E-03      0.4581798750E-03     -0.1827355210E-03
          0               493           4           315  185     1      -0.1683071274E-03     322  194    1      -0.1240301302E-03      0.3691782085E-03      0.4112875309E-03     -0.1683071274E-03
          0               494           4           315  185     1      -0.1547807927E-03     322  194    1      -0.1115176594E-03      0.3313665730E-03      0.3691782085E-03     -0.1547807927E-03
          0               495           4           315  185     1      -0.1421288662E-03     322  194    1      -0.1002597432E-03      0.2974161735E-03      0.3313665730E-03     -0.1421288662E-03
          0               496           4           315  185     1      -0.1303217012E-03     322  194    1      -0.9013165623E-04      0.2669346537E-03      0.2974161735E-03     -0.1303217012E-03
          0               497           4           315  185     1      -0.1193277685E-03     322  194    1      -0.8102094682E-04      0.2395692927E-03      0.2669346537E-03     -0.1193277685E-03
          0               498           4           315  185     1      -0.1091138535E-03     322  194    1      -0.7282623972E-04      0.2150030248E-03      0.2395692927E-03     -0.1091138535E-03
          0               499           3           315  185     1      -0.9964585228E-04     322  194    1      -0.6545615561E-04      0.1929508426E-03      0.2150030248E-03     -0.9964585228E-04
          0               500           3           315  185     1      -0.9088688798E-04     322  194    1      -0.5882833583E-04      0.1731463606E-03      0.1929508426E-03     -0.9088688798E-04
                                                   Max.-Head-Change                        Max.-Flux-Residual
  Residual-Control   Outer-Iter.   Inner-Iter.     Column Row Layer    Max.-Head-Change    Column Row Layer    Max.-Flux-Residual            L2-New               L2-Old           Solver-Max-Delh
          0               501           3           315  185     1      -0.8280100531E-04     322  194    1      -0.5286856235E-04      0.1553706705E-03      0.1731463606E-03     -0.8280100531E-04
          0               502           3           315  185     1      -0.7535122532E-04     322  194    1      -0.4750996259E-04      0.1394164746E-03      0.1553706705E-03     -0.7535122532E-04
          0               503           2           315  185     1      -0.6850038972E-04     322  194    1      -0.4269229155E-04      0.1250970469E-03      0.1394164746E-03     -0.6850038972E-04
          0               504           3           315  185     1      -0.6221191767E-04     322  194    1      -0.3836128399E-04      0.1122469505E-03      0.1250970469E-03     -0.6221191767E-04
          0               505           6           315  185     1      -0.5644790144E-04     322  194    1      -0.3446806596E-04      0.1007101485E-03      0.1122469505E-03     -0.5644790144E-04

    ------------------------------------------------
       NWT REQUIRED          505 OUTER ITERATIONS 
       AND A TOTAL OF      13206 INNER ITERATIONS.
    ------------------------------------------------

 OUTPUT CONTROL FOR STRESS PERIOD    1   TIME STEP    1
    PRINT BUDGET
    SAVE HEAD FOR ALL LAYERS
    SAVE DRAWDOWN FOR ALL LAYERS
    SAVE BUDGET
 UBDSV2 SAVING "   CONSTANT HEAD" ON UNIT  40 AT TIME STEP  1, STRESS PERIOD   1
 UBDSV1 SAVING "FLOW RIGHT FACE " ON UNIT  40 AT TIME STEP  1, STRESS PERIOD   1
 UBDSV1 SAVING "FLOW FRONT FACE " ON UNIT  40 AT TIME STEP  1, STRESS PERIOD   1
 UBDSV3 SAVING "        RECHARGE" ON UNIT  40 AT TIME STEP  1, STRESS PERIOD   1

 SAVING SATURATED THICKNESS AND FLOW TERMS ON UNIT  333 FOR MT3DMS
 BY THE LINK-MT3DMS PACKAGE V7 AT TIME STEP    1, STRESS PERIOD    1


 HEAD WILL BE SAVED ON UNIT    2 AT END OF TIME STEP    1, STRESS PERIOD    1

 DRAWDOWN WILL BE SAVED ON UNIT   12 AT END OF TIME STEP    1, STRESS PERIOD    1
1
  VOLUMETRIC BUDGET FOR ENTIRE MODEL AT END OF TIME STEP    1, STRESS PERIOD   1
  ------------------------------------------------------------------------------

     CUMULATIVE VOLUMES      L**3       RATES FOR THIS TIME STEP      L**3/T
     ------------------                 ------------------------

           IN:                                      IN:
           ---                                      ---
             STORAGE     =           0.0000               STORAGE     =           0.0000
       CONSTANT HEAD     =           0.0000         CONSTANT HEAD     =           0.0000
            RECHARGE     =           2.3372              RECHARGE     =           2.3372

                TOTAL IN =           2.3372                  TOTAL IN =           2.3372

          OUT:                                     OUT:
          ----                                     ----
             STORAGE     =           0.0000               STORAGE     =           0.0000
       CONSTANT HEAD     =           2.3371         CONSTANT HEAD     =           2.3371
            RECHARGE     =           0.0000              RECHARGE     =           0.0000

               TOTAL OUT =           2.3371                 TOTAL OUT =           2.3371

                IN - OUT =       8.3685E-05                  IN - OUT =       8.3685E-05

     PERCENT DISCREPANCY =           0.00         PERCENT DISCREPANCY =           0.00






         TIME SUMMARY AT END OF TIME STEP    1 IN STRESS PERIOD    1
                    SECONDS     MINUTES      HOURS       DAYS        YEARS
                    -----------------------------------------------------------
   TIME STEP LENGTH  86400.      1440.0      24.000      1.0000     2.73785E-03
 STRESS PERIOD TIME  86400.      1440.0      24.000      1.0000     2.73785E-03
         TOTAL TIME  86400.      1440.0      24.000      1.0000     2.73785E-03
1

 Run end date and time (yyyy/mm/dd hh:mm:ss): 2023/05/24 23:11:25
 Elapsed run time:  3 Minutes, 30.156 Seconds

